<?xml version="1.0" encoding="iso-8859-1"?>

<!-- generated on Thu Jun 16 23:58:14 2011 by SUMO netconvert Version 0.12.3

<configuration xmlns:xsi="http://www.w3.org/2001/XMLSchema-instance" xsi:noNamespaceSchemaLocation="http://sumo.sf.net/xsd/netconvertConfiguration.xsd">

    <input>
        <osm-files value="map.osm"/>
    </input>

    <projection>
        <proj.utm value="true"/>
    </projection>

    <processing>
        <remove-isolated value="true"/>
        <no-turnarounds value="true"/>
    </processing>

</configuration>
-->

<net version="0.13" xmlns:xsi="http://www.w3.org/2001/XMLSchema-instance" xsi:noNamespaceSchemaLocation="http://sumo.sf.net/xsd/net_file.xsd">

    <location netOffset="-598068.84,-4511688.61" convBoundary="0.00,0.00,4548.27,3740.40" origBoundary="-73.838029,40.749973,-73.784050,40.783698" projParameter="+proj=utm +zone=18 +ellps=WGS84 +datum=WGS84 +units=m +no_defs"/>

    <edge id=":42809279_0" function="internal">
        <lane id=":42809279_0_0" index="0" speed="13.89" length="5.00" shape="3096.94,2673.38 3096.63,2672.05 3095.96,2671.14 3094.95,2670.65 3093.58,2670.57"/>
    </edge>
    <edge id=":42809279_1" function="internal">
        <lane id=":42809279_1_0" index="0" speed="13.89" length="9.50" shape="3096.94,2673.38 3096.09,2663.92"/>
    </edge>
    <edge id=":42809279_2" function="internal">
        <lane id=":42809279_2_0" index="0" speed="13.89" length="10.32" shape="3096.94,2673.38 3097.09,2670.56 3098.11,2668.46 3099.99,2667.08 3102.74,2666.43"/>
    </edge>
    <edge id=":42809279_3" function="internal">
        <lane id=":42809279_3_0" index="0" speed="13.89" length="5.00" shape="3103.04,2669.72 3101.71,2670.04 3100.79,2670.70 3100.30,2671.72 3100.23,2673.09"/>
    </edge>
    <edge id=":42809279_4" function="internal">
        <lane id=":42809279_4_0" index="0" speed="13.89" length="9.50" shape="3103.04,2669.72 3093.58,2670.57"/>
    </edge>
    <edge id=":42809279_5" function="internal">
        <lane id=":42809279_5_0" index="0" speed="13.89" length="10.32" shape="3103.04,2669.72 3100.21,2669.57 3098.12,2668.56 3096.74,2666.67 3096.09,2663.92"/>
    </edge>
    <edge id=":42809279_6" function="internal">
        <lane id=":42809279_6_0" index="0" speed="13.89" length="5.00" shape="3099.38,2663.62 3099.69,2664.96 3100.36,2665.87 3101.38,2666.36 3102.74,2666.43"/>
    </edge>
    <edge id=":42809279_7" function="internal">
        <lane id=":42809279_7_0" index="0" speed="13.89" length="9.50" shape="3099.38,2663.62 3100.23,2673.09"/>
    </edge>
    <edge id=":42809279_8" function="internal">
        <lane id=":42809279_8_0" index="0" speed="13.89" length="10.32" shape="3099.38,2663.62 3099.23,2666.45 3098.21,2668.55 3096.33,2669.92 3093.58,2670.57"/>
    </edge>
    <edge id=":42809279_9" function="internal">
        <lane id=":42809279_9_0" index="0" speed="13.89" length="5.00" shape="3093.28,2667.29 3094.61,2666.97 3095.53,2666.31 3096.02,2665.29 3096.09,2663.92"/>
    </edge>
    <edge id=":42809279_10" function="internal">
        <lane id=":42809279_10_0" index="0" speed="13.89" length="9.50" shape="3093.28,2667.29 3102.74,2666.43"/>
    </edge>
    <edge id=":42809279_11" function="internal">
        <lane id=":42809279_11_0" index="0" speed="13.89" length="10.32" shape="3093.28,2667.29 3096.11,2667.43 3098.21,2668.45 3099.58,2670.33 3100.23,2673.09"/>
    </edge>
    <edge id=":42809283_0" function="internal">
        <lane id=":42809283_0_0" index="0" speed="13.89" length="5.00" shape="3089.83,2594.56 3089.52,2593.23 3088.85,2592.32 3087.83,2591.83 3086.46,2591.76"/>
    </edge>
    <edge id=":42809283_1" function="internal">
        <lane id=":42809283_1_0" index="0" speed="13.89" length="9.50" shape="3089.83,2594.56 3088.98,2585.10"/>
    </edge>
    <edge id=":42809283_2" function="internal">
        <lane id=":42809283_2_0" index="0" speed="13.89" length="10.32" shape="3089.83,2594.56 3089.98,2591.74 3091.00,2589.64 3092.88,2588.26 3095.63,2587.61"/>
    </edge>
    <edge id=":42809283_3" function="internal">
        <lane id=":42809283_3_0" index="0" speed="13.89" length="5.01" shape="3095.93,2590.90 3094.60,2591.21 3093.68,2591.88 3093.19,2592.90 3093.12,2594.27"/>
    </edge>
    <edge id=":42809283_4" function="internal">
        <lane id=":42809283_4_0" index="0" speed="13.89" length="9.51" shape="3095.93,2590.90 3086.46,2591.76"/>
    </edge>
    <edge id=":42809283_5" function="internal">
        <lane id=":42809283_5_0" index="0" speed="13.89" length="10.33" shape="3095.93,2590.90 3093.11,2590.75 3091.01,2589.74 3089.63,2587.86 3088.98,2585.10"/>
    </edge>
    <edge id=":42809283_6" function="internal">
        <lane id=":42809283_6_0" index="0" speed="13.89" length="5.00" shape="3092.26,2584.80 3092.58,2586.14 3093.25,2587.05 3094.26,2587.54 3095.63,2587.61"/>
    </edge>
    <edge id=":42809283_7" function="internal">
        <lane id=":42809283_7_0" index="0" speed="13.89" length="9.50" shape="3092.26,2584.80 3093.12,2594.27"/>
    </edge>
    <edge id=":42809283_8" function="internal">
        <lane id=":42809283_8_0" index="0" speed="13.89" length="10.33" shape="3092.26,2584.80 3092.12,2587.63 3091.10,2589.73 3089.22,2591.11 3086.46,2591.76"/>
    </edge>
    <edge id=":42809283_9" function="internal">
        <lane id=":42809283_9_0" index="0" speed="13.89" length="5.00" shape="3086.17,2588.47 3087.50,2588.15 3088.42,2587.49 3088.91,2586.47 3088.98,2585.10"/>
    </edge>
    <edge id=":42809283_10" function="internal">
        <lane id=":42809283_10_0" index="0" speed="13.89" length="9.50" shape="3086.17,2588.47 3095.63,2587.61"/>
    </edge>
    <edge id=":42809283_11" function="internal">
        <lane id=":42809283_11_0" index="0" speed="13.89" length="10.32" shape="3086.17,2588.47 3088.99,2588.62 3091.09,2589.63 3092.47,2591.52 3093.12,2594.27"/>
    </edge>
    <edge id=":42809286_0" function="internal">
        <lane id=":42809286_0_0" index="0" speed="13.89" length="5.01" shape="3082.65,2515.53 3082.33,2514.19 3081.66,2513.28 3080.64,2512.79 3079.27,2512.72"/>
    </edge>
    <edge id=":42809286_1" function="internal">
        <lane id=":42809286_1_0" index="0" speed="13.89" length="9.51" shape="3082.65,2515.53 3081.77,2506.06"/>
    </edge>
    <edge id=":42809286_2" function="internal">
        <lane id=":42809286_2_0" index="0" speed="13.89" length="10.33" shape="3082.65,2515.53 3082.79,2512.70 3083.81,2510.60 3085.69,2509.23 3088.44,2508.58"/>
    </edge>
    <edge id=":42809286_3" function="internal">
        <lane id=":42809286_3_0" index="0" speed="13.89" length="5.00" shape="3088.74,2511.86 3087.41,2512.18 3086.49,2512.84 3086.00,2513.86 3085.93,2515.23"/>
    </edge>
    <edge id=":42809286_4" function="internal">
        <lane id=":42809286_4_0" index="0" speed="13.89" length="9.51" shape="3088.74,2511.86 3079.27,2512.72"/>
    </edge>
    <edge id=":42809286_5" function="internal">
        <lane id=":42809286_5_0" index="0" speed="13.89" length="10.33" shape="3088.74,2511.86 3085.92,2511.71 3083.81,2510.70 3082.43,2508.81 3081.77,2506.06"/>
    </edge>
    <edge id=":42809286_6" function="internal">
        <lane id=":42809286_6_0" index="0" speed="13.89" length="5.03" shape="3085.05,2505.75 3085.38,2507.09 3086.05,2508.01 3087.07,2508.50 3088.44,2508.58"/>
    </edge>
    <edge id=":42809286_7" function="internal">
        <lane id=":42809286_7_0" index="0" speed="13.89" length="9.52" shape="3085.05,2505.75 3085.93,2515.23"/>
    </edge>
    <edge id=":42809286_8" function="internal">
        <lane id=":42809286_8_0" index="0" speed="13.89" length="10.34" shape="3085.05,2505.75 3084.92,2508.58 3083.91,2510.69 3082.02,2512.07 3079.27,2512.72"/>
    </edge>
    <edge id=":42809286_9" function="internal">
        <lane id=":42809286_9_0" index="0" speed="13.89" length="5.00" shape="3078.97,2509.43 3080.30,2509.12 3081.21,2508.45 3081.70,2507.43 3081.77,2506.06"/>
    </edge>
    <edge id=":42809286_10" function="internal">
        <lane id=":42809286_10_0" index="0" speed="13.89" length="9.52" shape="3078.97,2509.43 3088.44,2508.58"/>
    </edge>
    <edge id=":42809286_11" function="internal">
        <lane id=":42809286_11_0" index="0" speed="13.89" length="10.33" shape="3078.97,2509.43 3081.80,2509.58 3083.90,2510.59 3085.28,2512.48 3085.93,2515.23"/>
    </edge>
    <edge id=":42809288_0" function="internal">
        <lane id=":42809288_0_0" index="0" speed="13.89" length="12.60" shape="3075.18,2436.36 3074.34,2433.88 3072.37,2432.26 3069.26,2431.51 3065.03,2431.61"/>
    </edge>
    <edge id=":42809288_1" function="internal">
        <lane id=":42809288_1_0" index="0" speed="18.06" length="15.93" shape="3075.18,2436.36 3074.34,2433.12 3072.44,2430.06 3069.49,2427.16 3065.48,2424.44"/>
    </edge>
    <edge id=":42809288_2" function="internal">
        <lane id=":42809288_2_0" index="0" speed="13.89" length="15.32" shape="3075.18,2436.36 3074.82,2432.58 3074.47,2428.73 3074.11,2424.89 3073.77,2421.10"/>
    </edge>
    <edge id=":42809288_3" function="internal">
        <lane id=":42809288_3_0" index="0" speed="18.06" length="14.15" shape="3075.18,2436.36 3075.33,2432.06 3076.77,2429.69 3079.51,2429.27 3083.54,2430.78"/>
    </edge>
    <edge id=":42809288_4" function="internal">
        <lane id=":42809288_4_0" index="0" speed="18.06" length="5.97" shape="3081.99,2433.69 3080.29,2433.06 3079.14,2433.24 3078.53,2434.23 3078.47,2436.05"/>
    </edge>
    <edge id=":42809288_5" function="internal">
        <lane id=":42809288_5_0" index="0" speed="18.06" length="17.28" shape="3081.99,2433.69 3078.18,2432.30 3073.72,2431.57 3069.15,2431.37 3065.03,2431.61"/>
    </edge>
    <edge id=":42809288_6" function="internal">
        <lane id=":42809288_6_0" index="0" speed="22.22" length="18.93" shape="3081.99,2433.69 3078.16,2431.61 3073.70,2429.13 3069.26,2426.61 3065.48,2424.44"/>
    </edge>
    <edge id=":42809288_7" function="internal">
        <lane id=":42809288_7_0" index="0" speed="18.06" length="15.70" shape="3081.99,2433.69 3078.69,2431.43 3076.22,2428.57 3074.58,2425.13 3073.77,2421.10"/>
    </edge>
    <edge id=":42809288_8" function="internal">
        <lane id=":42809288_8_0" index="0" speed="18.06" length="12.42" shape="3077.05,2420.80 3077.69,2424.00 3078.99,2426.73 3080.94,2428.99 3083.54,2430.78"/>
    </edge>
    <edge id=":42809288_9" function="internal">
        <lane id=":42809288_9_0" index="0" speed="13.89" length="15.31" shape="3077.05,2420.80 3077.40,2424.59 3077.75,2428.43 3078.11,2432.27 3078.47,2436.05"/>
    </edge>
    <edge id=":42809288_10" function="internal">
        <lane id=":42809288_10_0" index="0" speed="13.89" length="18.23" shape="3077.05,2420.80 3076.62,2424.99 3074.47,2428.19 3070.61,2430.40 3065.03,2431.61"/>
    </edge>
    <edge id=":42809288_11" function="internal">
        <lane id=":42809288_11_0" index="0" speed="18.06" length="16.98" shape="3077.05,2420.80 3076.70,2425.13 3074.66,2427.18 3070.92,2426.95 3065.48,2424.44"/>
    </edge>
    <edge id=":42809288_12" function="internal">
        <lane id=":42809288_12_0" index="0" speed="18.06" length="8.70" shape="3067.14,2421.58 3070.19,2423.09 3072.32,2423.51 3073.51,2422.85 3073.77,2421.10"/>
    </edge>
    <edge id=":42809288_13" function="internal">
        <lane id=":42809288_13_0" index="0" speed="22.22" length="18.80" shape="3067.14,2421.58 3070.90,2423.75 3075.30,2426.25 3079.72,2428.71 3083.54,2430.78"/>
    </edge>
    <edge id=":42809288_14" function="internal">
        <lane id=":42809288_14_0" index="0" speed="18.06" length="19.06" shape="3067.14,2421.58 3071.80,2424.79 3075.24,2428.26 3077.46,2432.02 3078.47,2436.05"/>
    </edge>
    <edge id=":42809288_15" function="internal">
        <lane id=":42809288_15_0" index="0" speed="18.06" length="19.14" shape="3067.14,2421.58 3072.30,2425.29 3073.67,2428.20 3071.25,2430.30 3065.03,2431.61"/>
    </edge>
    <edge id=":42809288_16" function="internal">
        <lane id=":42809288_16_0" index="0" speed="18.06" length="7.43" shape="3064.66,2428.33 3067.07,2427.82 3068.02,2427.01 3067.48,2425.88 3065.48,2424.44"/>
    </edge>
    <edge id=":42809288_17" function="internal">
        <lane id=":42809288_17_0" index="0" speed="13.89" length="13.02" shape="3064.66,2428.33 3068.85,2427.47 3071.77,2425.98 3073.41,2423.86 3073.77,2421.10"/>
    </edge>
    <edge id=":42809288_18" function="internal">
        <lane id=":42809288_18_0" index="0" speed="18.06" length="19.21" shape="3064.66,2428.33 3069.08,2428.15 3074.31,2428.47 3079.42,2429.33 3083.54,2430.78"/>
    </edge>
    <edge id=":42809288_19" function="internal">
        <lane id=":42809288_19_0" index="0" speed="13.89" length="17.95" shape="3064.66,2428.33 3070.37,2428.27 3074.58,2429.54 3077.28,2432.13 3078.47,2436.05"/>
    </edge>
    <edge id=":42809291_0" function="internal">
        <lane id=":42809291_0_0" index="0" speed="13.89" length="5.02" shape="3068.01,2357.56 3067.69,2356.22 3067.02,2355.30 3066.00,2354.80 3064.63,2354.73"/>
    </edge>
    <edge id=":42809291_1" function="internal">
        <lane id=":42809291_1_0" index="0" speed="13.89" length="9.52" shape="3068.01,2357.56 3067.16,2348.08"/>
    </edge>
    <edge id=":42809291_2" function="internal">
        <lane id=":42809291_2_0" index="0" speed="13.89" length="10.33" shape="3068.01,2357.56 3068.15,2354.73 3069.17,2352.63 3071.05,2351.26 3073.81,2350.61"/>
    </edge>
    <edge id=":42809291_3" function="internal">
        <lane id=":42809291_3_0" index="0" speed="13.89" length="5.00" shape="3074.10,2353.90 3072.77,2354.21 3071.85,2354.87 3071.36,2355.89 3071.29,2357.26"/>
    </edge>
    <edge id=":42809291_4" function="internal">
        <lane id=":42809291_4_0" index="0" speed="13.89" length="9.51" shape="3074.10,2353.90 3064.63,2354.73"/>
    </edge>
    <edge id=":42809291_5" function="internal">
        <lane id=":42809291_5_0" index="0" speed="13.89" length="10.33" shape="3074.10,2353.90 3071.28,2353.74 3069.18,2352.72 3067.81,2350.84 3067.16,2348.08"/>
    </edge>
    <edge id=":42809291_6" function="internal">
        <lane id=":42809291_6_0" index="0" speed="13.89" length="5.00" shape="3070.45,2347.79 3070.76,2349.13 3071.43,2350.04 3072.44,2350.54 3073.81,2350.61"/>
    </edge>
    <edge id=":42809291_7" function="internal">
        <lane id=":42809291_7_0" index="0" speed="13.89" length="9.51" shape="3070.45,2347.79 3071.29,2357.26"/>
    </edge>
    <edge id=":42809291_8" function="internal">
        <lane id=":42809291_8_0" index="0" speed="13.89" length="10.33" shape="3070.45,2347.79 3070.30,2350.62 3069.27,2352.72 3067.38,2354.09 3064.63,2354.73"/>
    </edge>
    <edge id=":42809291_9" function="internal">
        <lane id=":42809291_9_0" index="0" speed="13.89" length="5.00" shape="3064.34,2351.44 3065.68,2351.13 3066.59,2350.46 3067.09,2349.45 3067.16,2348.08"/>
    </edge>
    <edge id=":42809291_10" function="internal">
        <lane id=":42809291_10_0" index="0" speed="13.89" length="9.50" shape="3064.34,2351.44 3073.81,2350.61"/>
    </edge>
    <edge id=":42809291_11" function="internal">
        <lane id=":42809291_11_0" index="0" speed="13.89" length="10.33" shape="3064.34,2351.44 3067.17,2351.60 3069.27,2352.62 3070.64,2354.51 3071.29,2357.26"/>
    </edge>
    <edge id=":42809295_0" function="internal">
        <lane id=":42809295_0_0" index="0" speed="13.89" length="5.01" shape="3049.97,2150.36 3049.66,2149.03 3048.99,2148.11 3047.98,2147.62 3046.60,2147.55"/>
    </edge>
    <edge id=":42809295_1" function="internal">
        <lane id=":42809295_1_0" index="0" speed="13.89" length="9.51" shape="3049.97,2150.36 3049.11,2140.89"/>
    </edge>
    <edge id=":42809295_2" function="internal">
        <lane id=":42809295_2_0" index="0" speed="13.89" length="10.34" shape="3049.97,2150.36 3050.12,2147.53 3051.15,2145.43 3053.03,2144.05 3055.78,2143.41"/>
    </edge>
    <edge id=":42809295_3" function="internal">
        <lane id=":42809295_3_0" index="0" speed="13.89" length="5.02" shape="3056.07,2146.70 3054.74,2147.01 3053.83,2147.68 3053.33,2148.70 3053.26,2150.08"/>
    </edge>
    <edge id=":42809295_4" function="internal">
        <lane id=":42809295_4_0" index="0" speed="13.89" length="9.51" shape="3056.07,2146.70 3046.60,2147.55"/>
    </edge>
    <edge id=":42809295_5" function="internal">
        <lane id=":42809295_5_0" index="0" speed="13.89" length="10.32" shape="3056.07,2146.70 3053.25,2146.54 3051.15,2145.52 3049.77,2143.64 3049.11,2140.89"/>
    </edge>
    <edge id=":42809295_6" function="internal">
        <lane id=":42809295_6_0" index="0" speed="13.89" length="5.02" shape="3052.40,2140.58 3052.72,2141.92 3053.39,2142.84 3054.41,2143.33 3055.78,2143.41"/>
    </edge>
    <edge id=":42809295_7" function="internal">
        <lane id=":42809295_7_0" index="0" speed="13.89" length="9.53" shape="3052.40,2140.58 3053.26,2150.08"/>
    </edge>
    <edge id=":42809295_8" function="internal">
        <lane id=":42809295_8_0" index="0" speed="13.89" length="10.34" shape="3052.40,2140.58 3052.26,2143.41 3051.25,2145.51 3049.36,2146.89 3046.60,2147.55"/>
    </edge>
    <edge id=":42809295_9" function="internal">
        <lane id=":42809295_9_0" index="0" speed="13.89" length="5.01" shape="3046.30,2144.27 3047.64,2143.95 3048.55,2143.28 3049.05,2142.26 3049.11,2140.89"/>
    </edge>
    <edge id=":42809295_10" function="internal">
        <lane id=":42809295_10_0" index="0" speed="13.89" length="9.52" shape="3046.30,2144.27 3055.78,2143.41"/>
    </edge>
    <edge id=":42809295_11" function="internal">
        <lane id=":42809295_11_0" index="0" speed="13.89" length="10.35" shape="3046.30,2144.27 3049.13,2144.41 3051.24,2145.42 3052.61,2147.31 3053.26,2150.08"/>
    </edge>
    <edge id=":42809300_0" function="internal">
        <lane id=":42809300_0_0" index="0" speed="13.89" length="5.03" shape="3035.71,1997.61 3035.39,1996.27 3034.72,1995.35 3033.69,1994.85 3032.32,1994.78"/>
    </edge>
    <edge id=":42809300_1" function="internal">
        <lane id=":42809300_1_0" index="0" speed="13.89" length="9.52" shape="3035.71,1997.61 3034.84,1988.13"/>
    </edge>
    <edge id=":42809300_2" function="internal">
        <lane id=":42809300_2_0" index="0" speed="13.89" length="10.34" shape="3035.71,1997.61 3035.85,1994.78 3036.86,1992.68 3038.75,1991.30 3041.50,1990.65"/>
    </edge>
    <edge id=":42809300_3" function="internal">
        <lane id=":42809300_3_0" index="0" speed="13.89" length="5.00" shape="3041.80,1993.93 3040.46,1994.25 3039.55,1994.92 3039.06,1995.93 3039.00,1997.31"/>
    </edge>
    <edge id=":42809300_4" function="internal">
        <lane id=":42809300_4_0" index="0" speed="13.89" length="9.52" shape="3041.80,1993.93 3032.32,1994.78"/>
    </edge>
    <edge id=":42809300_5" function="internal">
        <lane id=":42809300_5_0" index="0" speed="13.89" length="10.33" shape="3041.80,1993.93 3038.97,1993.79 3036.87,1992.77 3035.49,1990.89 3034.84,1988.13"/>
    </edge>
    <edge id=":42809300_6" function="internal">
        <lane id=":42809300_6_0" index="0" speed="13.89" length="5.01" shape="3038.13,1987.84 3038.44,1989.17 3039.11,1990.08 3040.13,1990.58 3041.50,1990.65"/>
    </edge>
    <edge id=":42809300_7" function="internal">
        <lane id=":42809300_7_0" index="0" speed="13.89" length="9.51" shape="3038.13,1987.84 3039.00,1997.31"/>
    </edge>
    <edge id=":42809300_8" function="internal">
        <lane id=":42809300_8_0" index="0" speed="13.89" length="10.33" shape="3038.13,1987.84 3037.98,1990.66 3036.96,1992.76 3035.08,1994.13 3032.32,1994.78"/>
    </edge>
    <edge id=":42809300_9" function="internal">
        <lane id=":42809300_9_0" index="0" speed="13.89" length="5.00" shape="3032.03,1991.49 3033.36,1991.18 3034.28,1990.52 3034.77,1989.50 3034.84,1988.13"/>
    </edge>
    <edge id=":42809300_10" function="internal">
        <lane id=":42809300_10_0" index="0" speed="13.89" length="9.51" shape="3032.03,1991.49 3041.50,1990.65"/>
    </edge>
    <edge id=":42809300_11" function="internal">
        <lane id=":42809300_11_0" index="0" speed="13.89" length="10.33" shape="3032.03,1991.49 3034.85,1991.64 3036.96,1992.66 3038.34,1994.55 3039.00,1997.31"/>
    </edge>
    <edge id=":42811367_0" function="internal">
        <lane id=":42811367_0_0" index="0" speed="13.89" length="5.01" shape="2367.26,2580.18 2366.94,2578.85 2366.27,2577.93 2365.26,2577.44 2363.89,2577.37"/>
    </edge>
    <edge id=":42811367_1" function="internal">
        <lane id=":42811367_1_0" index="0" speed="13.89" length="9.51" shape="2367.26,2580.18 2366.40,2570.71"/>
    </edge>
    <edge id=":42811367_2" function="internal">
        <lane id=":42811367_2_0" index="0" speed="13.89" length="10.33" shape="2367.26,2580.18 2367.40,2577.35 2368.41,2575.25 2370.30,2573.88 2373.06,2573.23"/>
    </edge>
    <edge id=":42811367_3" function="internal">
        <lane id=":42811367_3_0" index="0" speed="13.89" length="5.00" shape="2373.35,2576.51 2372.02,2576.83 2371.10,2577.49 2370.61,2578.51 2370.54,2579.88"/>
    </edge>
    <edge id=":42811367_4" function="internal">
        <lane id=":42811367_4_0" index="0" speed="13.89" length="9.50" shape="2373.35,2576.51 2363.89,2577.37"/>
    </edge>
    <edge id=":42811367_5" function="internal">
        <lane id=":42811367_5_0" index="0" speed="13.89" length="10.33" shape="2373.35,2576.51 2370.52,2576.36 2368.42,2575.35 2367.05,2573.46 2366.40,2570.71"/>
    </edge>
    <edge id=":42811367_6" function="internal">
        <lane id=":42811367_6_0" index="0" speed="13.89" length="5.01" shape="2369.69,2570.42 2370.00,2571.75 2370.67,2572.66 2371.69,2573.15 2373.06,2573.23"/>
    </edge>
    <edge id=":42811367_7" function="internal">
        <lane id=":42811367_7_0" index="0" speed="13.89" length="9.50" shape="2369.69,2570.42 2370.54,2579.88"/>
    </edge>
    <edge id=":42811367_8" function="internal">
        <lane id=":42811367_8_0" index="0" speed="13.89" length="10.32" shape="2369.69,2570.42 2369.54,2573.24 2368.52,2575.34 2366.64,2576.72 2363.89,2577.37"/>
    </edge>
    <edge id=":42811367_9" function="internal">
        <lane id=":42811367_9_0" index="0" speed="13.89" length="5.00" shape="2363.59,2574.08 2364.92,2573.77 2365.83,2573.10 2366.33,2572.08 2366.40,2570.71"/>
    </edge>
    <edge id=":42811367_10" function="internal">
        <lane id=":42811367_10_0" index="0" speed="13.89" length="9.51" shape="2363.59,2574.08 2373.06,2573.23"/>
    </edge>
    <edge id=":42811367_11" function="internal">
        <lane id=":42811367_11_0" index="0" speed="13.89" length="10.33" shape="2363.59,2574.08 2366.41,2574.23 2368.51,2575.24 2369.89,2577.13 2370.54,2579.88"/>
    </edge>
    <edge id=":42811370_0" function="internal">
        <lane id=":42811370_0_0" index="0" speed="13.89" length="5.01" shape="2609.29,2558.48 2608.97,2557.15 2608.30,2556.23 2607.29,2555.74 2605.91,2555.67"/>
    </edge>
    <edge id=":42811370_1" function="internal">
        <lane id=":42811370_1_0" index="0" speed="13.89" length="9.50" shape="2609.29,2558.48 2608.43,2549.02"/>
    </edge>
    <edge id=":42811370_2" function="internal">
        <lane id=":42811370_2_0" index="0" speed="13.89" length="10.32" shape="2609.29,2558.48 2609.43,2555.65 2610.45,2553.56 2612.33,2552.18 2615.08,2551.53"/>
    </edge>
    <edge id=":42811370_3" function="internal">
        <lane id=":42811370_3_0" index="0" speed="13.89" length="5.00" shape="2615.38,2554.82 2614.05,2555.13 2613.14,2555.80 2612.64,2556.81 2612.57,2558.18"/>
    </edge>
    <edge id=":42811370_4" function="internal">
        <lane id=":42811370_4_0" index="0" speed="13.89" length="9.51" shape="2615.38,2554.82 2605.91,2555.67"/>
    </edge>
    <edge id=":42811370_5" function="internal">
        <lane id=":42811370_5_0" index="0" speed="13.89" length="10.32" shape="2615.38,2554.82 2612.56,2554.67 2610.46,2553.65 2609.08,2551.77 2608.43,2549.02"/>
    </edge>
    <edge id=":42811370_6" function="internal">
        <lane id=":42811370_6_0" index="0" speed="13.89" length="5.00" shape="2611.72,2548.72 2612.03,2550.05 2612.70,2550.97 2613.72,2551.46 2615.08,2551.53"/>
    </edge>
    <edge id=":42811370_7" function="internal">
        <lane id=":42811370_7_0" index="0" speed="13.89" length="9.51" shape="2611.72,2548.72 2612.57,2558.18"/>
    </edge>
    <edge id=":42811370_8" function="internal">
        <lane id=":42811370_8_0" index="0" speed="13.89" length="10.33" shape="2611.72,2548.72 2611.57,2551.54 2610.56,2553.64 2608.67,2555.02 2605.91,2555.67"/>
    </edge>
    <edge id=":42811370_9" function="internal">
        <lane id=":42811370_9_0" index="0" speed="13.89" length="5.00" shape="2605.62,2552.38 2606.95,2552.07 2607.87,2551.40 2608.36,2550.38 2608.43,2549.02"/>
    </edge>
    <edge id=":42811370_10" function="internal">
        <lane id=":42811370_10_0" index="0" speed="13.89" length="9.50" shape="2605.62,2552.38 2615.08,2551.53"/>
    </edge>
    <edge id=":42811370_11" function="internal">
        <lane id=":42811370_11_0" index="0" speed="13.89" length="10.32" shape="2605.62,2552.38 2608.45,2552.53 2610.55,2553.55 2611.92,2555.43 2612.57,2558.18"/>
    </edge>
    <edge id=":42811373_0" function="internal">
        <lane id=":42811373_0_0" index="0" speed="18.06" length="5.01" shape="2846.01,2537.06 2845.69,2535.72 2845.02,2534.81 2844.00,2534.32 2842.63,2534.25"/>
    </edge>
    <edge id=":42811373_1" function="internal">
        <lane id=":42811373_1_0" index="0" speed="22.22" length="9.51" shape="2846.01,2537.06 2845.14,2527.59"/>
    </edge>
    <edge id=":42811373_2" function="internal">
        <lane id=":42811373_2_0" index="0" speed="18.06" length="10.32" shape="2846.01,2537.06 2846.15,2534.23 2847.17,2532.13 2849.05,2530.75 2851.80,2530.10"/>
    </edge>
    <edge id=":42811373_3" function="internal">
        <lane id=":42811373_3_0" index="0" speed="18.06" length="5.00" shape="2852.10,2533.39 2850.77,2533.70 2849.86,2534.37 2849.37,2535.39 2849.30,2536.76"/>
    </edge>
    <edge id=":42811373_4" function="internal">
        <lane id=":42811373_4_0" index="0" speed="13.89" length="9.51" shape="2852.10,2533.39 2842.63,2534.25"/>
    </edge>
    <edge id=":42811373_5" function="internal">
        <lane id=":42811373_5_0" index="0" speed="18.06" length="10.33" shape="2852.10,2533.39 2849.28,2533.24 2847.18,2532.23 2845.79,2530.34 2845.14,2527.59"/>
    </edge>
    <edge id=":42811373_6" function="internal">
        <lane id=":42811373_6_0" index="0" speed="18.06" length="5.02" shape="2848.42,2527.28 2848.74,2528.62 2849.41,2529.54 2850.43,2530.03 2851.80,2530.10"/>
    </edge>
    <edge id=":42811373_7" function="internal">
        <lane id=":42811373_7_0" index="0" speed="22.22" length="9.51" shape="2848.42,2527.28 2849.30,2536.76"/>
    </edge>
    <edge id=":42811373_8" function="internal">
        <lane id=":42811373_8_0" index="0" speed="18.06" length="10.34" shape="2848.42,2527.28 2848.28,2530.11 2847.27,2532.22 2845.39,2533.60 2842.63,2534.25"/>
    </edge>
    <edge id=":42811373_9" function="internal">
        <lane id=":42811373_9_0" index="0" speed="18.06" length="5.00" shape="2842.33,2530.96 2843.67,2530.65 2844.58,2529.98 2845.07,2528.96 2845.14,2527.59"/>
    </edge>
    <edge id=":42811373_10" function="internal">
        <lane id=":42811373_10_0" index="0" speed="13.89" length="9.51" shape="2842.33,2530.96 2851.80,2530.10"/>
    </edge>
    <edge id=":42811373_11" function="internal">
        <lane id=":42811373_11_0" index="0" speed="18.06" length="10.33" shape="2842.33,2530.96 2845.16,2531.11 2847.26,2532.12 2848.64,2534.00 2849.30,2536.76"/>
    </edge>
    <edge id=":42811376_0" function="internal">
        <lane id=":42811376_0_0" index="0" speed="18.06" length="19.99" shape="3211.70,2507.18 3207.64,2505.23 3202.40,2503.64 3197.00,2502.66 3192.48,2502.51"/>
    </edge>
    <edge id=":42811376_1" function="internal">
        <lane id=":42811376_1_0" index="0" speed="22.22" length="22.06" shape="3211.70,2507.18 3207.64,2504.54 3202.43,2501.21 3197.21,2497.91 3193.09,2495.35"/>
    </edge>
    <edge id=":42811376_2" function="internal">
        <lane id=":42811376_2_0" index="0" speed="18.06" length="18.41" shape="3211.70,2507.18 3207.01,2503.35 3205.86,2500.42 3208.27,2498.39 3214.22,2497.26"/>
    </edge>
    <edge id=":42811376_3" function="internal">
        <lane id=":42811376_3_0" index="0" speed="18.06" length="7.21" shape="3214.51,2500.54 3212.18,2500.99 3211.24,2501.78 3211.69,2502.93 3213.53,2504.43"/>
    </edge>
    <edge id=":42811376_4" function="internal">
        <lane id=":42811376_4_0" index="0" speed="13.89" length="22.12" shape="3214.51,2500.54 3209.67,2500.97 3203.50,2501.52 3197.32,2502.07 3192.48,2502.51"/>
    </edge>
    <edge id=":42811376_5" function="internal">
        <lane id=":42811376_5_0" index="0" speed="18.06" length="22.22" shape="3214.51,2500.54 3209.66,2500.28 3203.53,2499.09 3197.54,2497.32 3193.09,2495.35"/>
    </edge>
    <edge id=":42811376_6" function="internal">
        <lane id=":42811376_6_0" index="0" speed="18.06" length="20.16" shape="3194.81,2492.53 3198.94,2494.43 3204.25,2496.04 3209.69,2497.07 3214.22,2497.26"/>
    </edge>
    <edge id=":42811376_7" function="internal">
        <lane id=":42811376_7_0" index="0" speed="22.22" length="22.18" shape="3194.81,2492.53 3198.95,2495.10 3204.21,2498.42 3209.44,2501.77 3213.53,2504.43"/>
    </edge>
    <edge id=":42811376_8" function="internal">
        <lane id=":42811376_8_0" index="0" speed="18.06" length="19.12" shape="3194.81,2492.53 3199.89,2496.35 3201.19,2499.28 3198.72,2501.33 3192.48,2502.51"/>
    </edge>
    <edge id=":42811376_9" function="internal">
        <lane id=":42811376_9_0" index="0" speed="18.06" length="7.43" shape="3192.19,2499.22 3194.61,2498.77 3195.57,2497.97 3195.06,2496.83 3193.09,2495.35"/>
    </edge>
    <edge id=":42811376_10" function="internal">