<?xml version="1.0" encoding="iso-8859-1"?>

<!-- generated on Mon Sep 12 14:50:48 2011 by SUMO netconvert Version 0.13.0
<?xml version="1.0" encoding="iso-8859-1"?>

<configuration xmlns:xsi="http://www.w3.org/2001/XMLSchema-instance" xsi:noNamespaceSchemaLocation="http://sumo.sf.net/xsd/netconvertConfiguration.xsd">

    <input>
        <osm-files value="manhattan_tiny.osm"/>
    </input>

    <output>
        <output-file value="net.net.xml"/>
    </output>

    <projection>
        <proj.utm value="true"/>
    </projection>

    <edge_removal>
        <remove-edges.isolated value="true"/>
    </edge_removal>

    <processing>
        <no-turnarounds value="true"/>
        <junctions.join value="true"/>
    </processing>

</configuration>
-->

<net version="0.13" xmlns:xsi="http://www.w3.org/2001/XMLSchema-instance" xsi:noNamespaceSchemaLocation="http://sumo.sf.net/xsd/net_file.xsd">

    <location netOffset="-598621.56,-4511312.55" convBoundary="0.00,0.00,3261.95,3490.41" origBoundary="-73.831669,40.746682,-73.792790,40.778008" projParameter="+proj=utm +zone=18 +ellps=WGS84 +datum=WGS84 +units=m +no_defs"/>

    <edge id=":1408806992_0" function="internal">
        <lane id=":1408806992_0_0" index="0" speed="16.67" length="5.15" shape="513.89,1054.25 512.69,1053.44 511.53,1053.17 510.41,1053.44 509.34,1054.27"/>
    </edge>
    <edge id=":1408806992_1" function="internal">
        <lane id=":1408806992_1_0" index="0" speed="16.67" length="13.34" shape="513.89,1054.25 510.95,1051.08 509.52,1048.11 509.58,1045.37 511.15,1042.84"/>
    </edge>
    <edge id=":1408806992_2" function="internal">
        <lane id=":1408806992_2_0" index="0" speed="16.67" length="5.04" shape="515.91,1047.41 515.10,1048.54 514.86,1049.64 515.19,1050.73 516.09,1051.79"/>
    </edge>
    <edge id=":1408806992_3" function="internal">
        <lane id=":1408806992_3_0" index="0" speed="27.78" length="9.50" shape="515.91,1047.41 509.34,1054.27"/>
    </edge>
    <edge id=":1408806992_4" function="internal">
        <lane id=":1408806992_4_0" index="0" speed="27.78" length="9.50" shape="513.53,1045.12 506.95,1051.98"/>
    </edge>
    <edge id=":1408806992_5" function="internal">
        <lane id=":1408806992_5_0" index="0" speed="27.78" length="9.50" shape="502.19,1047.41 508.77,1040.56"/>
    </edge>
    <edge id=":1408806992_6" function="internal">
        <lane id=":1408806992_6_0" index="0" speed="27.78" length="9.50" shape="504.57,1049.70 511.15,1042.84"/>
    </edge>
    <edge id=":1408806992_7" function="internal">
        <lane id=":1408806992_7_0" index="0" speed="16.67" length="6.38" shape="504.57,1049.70 506.88,1048.18 509.56,1048.02 510.43,1048.36"/>
    </edge>
    <edge id=":1408806992_8" function="internal">
        <lane id=":1408806992_8_0" index="0" speed="16.67" length="6.67" shape="510.43,1048.36 512.63,1049.22 516.09,1051.79"/>
    </edge>
    <edge id=":274304148_0" function="internal">
        <lane id=":274304148_0_0" index="0" speed="25.00" length="10.86" shape="2311.26,1769.64 2307.87,1768.44 2304.99,1767.82 2302.61,1767.77 2300.75,1768.30"/>
    </edge>
    <edge id=":274304148_1" function="internal">
        <lane id=":274304148_1_0" index="0" speed="25.00" length="20.20" shape="2311.26,1769.64 2305.37,1766.47 2303.09,1763.23 2304.42,1759.92 2309.36,1756.54"/>
    </edge>
    <edge id=":274304148_2" function="internal">
        <lane id=":274304148_2_0" index="0" speed="25.00" length="6.37" shape="2312.34,1762.43 2310.67,1763.54 2310.15,1764.60 2310.76,1765.62 2312.51,1766.59"/>
    </edge>
    <edge id=":274304148_3" function="internal">
        <lane id=":274304148_3_0" index="0" speed="27.78" length="12.99" shape="2312.34,1762.43 2308.90,1764.17 2306.54,1765.36 2304.19,1766.56 2300.75,1768.30"/>
    </edge>
    <edge id=":274304148_4" function="internal">
        <lane id=":274304148_4_0" index="0" speed="27.78" length="12.99" shape="2310.85,1759.49 2307.41,1761.23 2305.05,1762.42 2302.70,1763.61 2299.26,1765.35"/>
    </edge>
    <edge id=":274304148_5" function="internal">
        <lane id=":274304148_5_0" index="0" speed="27.78" length="12.99" shape="2296.28,1759.46 2299.72,1757.72 2302.07,1756.53 2304.43,1755.34 2307.87,1753.60"/>
    </edge>
    <edge id=":274304148_6" function="internal">
        <lane id=":274304148_6_0" index="0" speed="27.78" length="12.99" shape="2297.77,1762.41 2301.21,1760.67 2303.56,1759.48 2305.92,1758.28 2309.36,1756.54"/>
    </edge>
    <edge id=":274304148_7" function="internal">
        <lane id=":274304148_7_0" index="0" speed="25.00" length="5.76" shape="2297.77,1762.41 2299.44,1762.29 2302.46,1762.94 2303.40,1763.26"/>
    </edge>
    <edge id=":274304148_8" function="internal">
        <lane id=":274304148_8_0" index="0" speed="25.00" length="9.70" shape="2303.40,1763.26 2306.81,1764.38 2312.51,1766.59"/>
    </edge>
    <edge id=":274304230_0" function="internal">
        <lane id=":274304230_0_0" index="0" speed="22.22" length="13.01" shape="280.46,1892.29 279.72,1888.90 279.39,1885.83 279.63,1882.80 280.59,1879.53"/>
    </edge>
    <edge id=":274304230_1" function="internal">
        <lane id=":274304230_1_0" index="0" speed="25.00" length="10.01" shape="280.46,1892.29 280.28,1889.70 281.28,1888.23 283.45,1887.87 286.80,1888.64"/>
    </edge>
    <edge id=":274304230_2" function="internal">
        <lane id=":274304230_2_0" index="0" speed="25.00" length="7.15" shape="283.66,1880.74 283.48,1882.15 284.12,1883.42 285.58,1884.54 287.85,1885.51"/>
    </edge>
    <edge id=":274304230_3" function="internal">
        <lane id=":274304230_3_0" index="0" speed="22.22" length="11.04" shape="283.66,1880.74 282.72,1883.70 282.53,1886.05 282.91,1888.43 283.67,1891.51"/>
    </edge>
    <edge id=":274304230_4" function="internal">
        <lane id=":274304230_4_0" index="0" speed="25.00" length="5.16" shape="276.50,1881.50 277.83,1881.79 278.96,1881.55 279.88,1880.80 280.59,1879.53"/>
    </edge>
    <edge id=":274304230_5" function="internal">
        <lane id=":274304230_5_0" index="0" speed="27.78" length="12.04" shape="276.50,1881.50 279.84,1882.76 282.15,1883.59 284.46,1884.37 287.85,1885.51"/>
    </edge>
    <edge id=":274304230_6" function="internal">
        <lane id=":274304230_6_0" index="0" speed="27.78" length="12.17" shape="275.33,1884.58 278.71,1885.86 281.03,1886.69 283.37,1887.49 286.80,1888.64"/>
    </edge>
    <edge id=":274304230_7" function="internal">
        <lane id=":274304230_7_0" index="0" speed="25.00" length="11.23" shape="275.33,1884.58 278.60,1886.06 281.08,1887.71 282.77,1889.53 283.67,1891.51"/>
    </edge>
    <edge id=":42791413_0" function="internal">
        <lane id=":42791413_0_0" index="0" speed="13.89" length="9.30" shape="2741.65,1637.91 2732.38,1638.67"/>
    </edge>
    <edge id=":42791413_1" function="internal">
        <lane id=":42791413_1_0" index="0" speed="13.89" length="6.98" shape="2741.65,1637.91 2738.88,1637.69 2736.82,1636.62 2735.72,1635.09"/>
    </edge>
    <edge id=":42791413_6" function="internal">
        <lane id=":42791413_6_0" index="0" speed="13.89" length="3.24" shape="2735.72,1635.09 2735.47,1634.73 2734.83,1632.00"/>
    </edge>
    <edge id=":42791413_2" function="internal">
        <lane id=":42791413_2_0" index="0" speed="13.89" length="5.01" shape="2738.12,1631.70 2738.43,1633.05 2739.09,1633.98 2740.10,1634.51 2741.45,1634.62"/>
    </edge>
    <edge id=":42791413_3" function="internal">
        <lane id=":42791413_3_0" index="0" speed="13.89" length="10.27" shape="2738.12,1631.70 2737.98,1634.51 2736.97,1636.61 2735.11,1637.99 2732.38,1638.67"/>
    </edge>
    <edge id=":42791413_4" function="internal">
        <lane id=":42791413_4_0" index="0" speed="13.89" length="4.99" shape="2732.04,1635.39 2733.37,1635.06 2734.27,1634.38 2734.76,1633.37 2734.83,1632.00"/>
    </edge>
    <edge id=":42791413_5" function="internal">
        <lane id=":42791413_5_0" index="0" speed="13.89" length="9.43" shape="2732.04,1635.39 2741.45,1634.62"/>
    </edge>
    <edge id=":42807254_0" function="internal">
        <lane id=":42807254_0_0" index="0" speed="20.83" length="5.16" shape="755.97,796.57 754.76,795.76 753.60,795.50 752.48,795.79 751.42,796.63"/>
    </edge>
    <edge id=":42807254_1" function="internal">
        <lane id=":42807254_1_0" index="0" speed="20.83" length="13.39" shape="755.97,796.57 753.01,793.40 751.56,790.43 751.63,787.68 753.22,785.14"/>
    </edge>
    <edge id=":42807254_2" function="internal">
        <lane id=":42807254_2_0" index="0" speed="20.83" length="5.05" shape="757.97,789.71 757.16,790.84 756.92,791.95 757.25,793.03 758.15,794.09"/>
    </edge>
    <edge id=":42807254_3" function="internal">
        <lane id=":42807254_3_0" index="0" speed="27.78" length="9.53" shape="757.97,789.71 751.42,796.63"/>
    </edge>
    <edge id=":42807254_4" function="internal">
        <lane id=":42807254_4_0" index="0" speed="27.78" length="9.58" shape="755.59,787.42 749.00,794.38"/>
    </edge>
    <edge id=":42807254_5" function="internal">
        <lane id=":42807254_5_0" index="0" speed="27.78" length="9.69" shape="744.18,789.88 750.84,782.85"/>
    </edge>
    <edge id=":42807254_6" function="internal">
        <lane id=":42807254_6_0" index="0" speed="27.78" length="9.63" shape="746.59,792.13 753.22,785.14"/>
    </edge>
    <edge id=":42807254_7" function="internal">
        <lane id=":42807254_7_0" index="0" speed="20.83" length="6.45" shape="746.59,792.13 748.89,790.56 751.59,790.36 752.49,790.71"/>
    </edge>
    <edge id=":42807254_8" function="internal">
        <lane id=":42807254_8_0" index="0" speed="20.83" length="6.66" shape="752.49,790.71 754.67,791.54 758.15,794.09"/>
    </edge>
    <edge id=":42807256_0" function="internal">
        <lane id=":42807256_0_0" index="0" speed="13.89" length="9.51" shape="848.18,877.83 841.04,871.55"/>
    </edge>
    <edge id=":42807256_1" function="internal">
        <lane id=":42807256_1_0" index="0" speed="13.89" length="7.15" shape="848.18,877.83 846.35,875.68 845.63,873.46 845.99,871.50"/>
    </edge>
    <edge id=":42807256_6" function="internal">
        <lane id=":42807256_6_0" index="0" speed="13.89" length="3.18" shape="845.99,871.50 846.05,871.16 847.60,868.79"/>
    </edge>
    <edge id=":42807256_2" function="internal">
        <lane id=":42807256_2_0" index="0" speed="13.89" length="5.01" shape="850.08,870.96 849.33,872.12 849.13,873.23 849.47,874.31 850.36,875.35"/>
    </edge>
    <edge id=":42807256_3" function="internal">
        <lane id=":42807256_3_0" index="0" speed="13.89" length="10.34" shape="850.08,870.96 847.93,872.81 845.71,873.52 843.41,873.10 841.04,871.55"/>
    </edge>
    <edge id=":42807256_4" function="internal">
        <lane id=":42807256_4_0" index="0" speed="13.89" length="5.00" shape="843.23,869.07 844.37,869.82 845.48,870.03 846.56,869.68 847.60,868.79"/>
    </edge>
    <edge id=":42807256_5" function="internal">
        <lane id=":42807256_5_0" index="0" speed="13.89" length="9.50" shape="843.23,869.07 850.36,875.35"/>
    </edge>
    <edge id=":42807260_0" function="internal">
        <lane id=":42807260_0_0" index="0" speed="13.89" length="9.46" shape="905.30,928.01 898.21,921.74"/>
    </edge>
    <edge id=":42807260_1" function="internal">
        <lane id=":42807260_1_0" index="0" speed="13.89" length="7.11" shape="905.30,928.01 903.48,925.86 902.79,923.63 903.15,921.70"/>
    </edge>
    <edge id=":42807260_6" function="internal">
        <lane id=":42807260_6_0" index="0" speed="13.89" length="3.19" shape="903.15,921.70 903.21,921.34 904.76,918.97"/>
    </edge>
    <edge id=":42807260_2" function="internal">
        <lane id=":42807260_2_0" index="0" speed="13.89" length="5.01" shape="907.24,921.15 906.49,922.30 906.28,923.42 906.61,924.50 907.49,925.54"/>
    </edge>
    <edge id=":42807260_3" function="internal">
        <lane id=":42807260_3_0" index="0" speed="13.89" length="10.32" shape="907.24,921.15 905.09,922.99 902.87,923.70 900.58,923.28 898.21,921.74"/>
    </edge>
    <edge id=":42807260_4" function="internal">
        <lane id=":42807260_4_0" index="0" speed="13.89" length="5.00" shape="900.39,919.26 901.53,920.01 902.64,920.21 903.72,919.87 904.76,918.97"/>
    </edge>
    <edge id=":42807260_5" function="internal">
        <lane id=":42807260_5_0" index="0" speed="13.89" length="9.49" shape="900.39,919.26 907.49,925.54"/>
    </edge>
    <edge id=":42807263_0" function="internal">
        <lane id=":42807263_0_0" index="0" speed="13.89" length="5.01" shape="962.15,978.66 961.01,977.90 959.89,977.69 958.82,978.04 957.77,978.93"/>
    </edge>
    <edge id=":42807263_1" function="internal">
        <lane id=":42807263_1_0" index="0" speed="13.89" length="9.55" shape="962.15,978.66 955.02,972.30"/>
    </edge>
    <edge id=":42807263_2" function="internal">
        <lane id=":42807263_2_0" index="0" speed="13.89" length="7.17" shape="962.15,978.66 960.32,976.49 959.62,974.25 959.98,972.30"/>
    </edge>
    <edge id=":42807263_12" function="internal">
        <lane id=":42807263_12_0" index="0" speed="13.89" length="3.20" shape="959.98,972.30 960.04,971.95 961.59,969.57"/>
    </edge>
    <edge id=":42807263_3" function="internal">
        <lane id=":42807263_3_0" index="0" speed="13.89" length="5.08" shape="964.07,971.75 963.31,972.91 963.11,974.04 963.45,975.14 964.35,976.20"/>
    </edge>
    <edge id=":42807263_4" function="internal">
        <lane id=":42807263_4_0" index="0" speed="13.89" length="9.55" shape="964.07,971.75 957.77,978.93"/>
    </edge>
    <edge id=":42807263_5" function="internal">
        <lane id=":42807263_5_0" index="0" speed="13.89" length="10.36" shape="964.07,971.75 961.91,973.60 959.69,974.30 957.39,973.87 955.02,972.30"/>
    </edge>
    <edge id=":42807263_6" function="internal">
        <lane id=":42807263_6_0" index="0" speed="13.89" length="5.01" shape="957.22,969.84 958.36,970.60 959.47,970.81 960.55,970.46 961.59,969.57"/>
    </edge>
    <edge id=":42807263_7" function="internal">
        <lane id=":42807263_7_0" index="0" speed="13.89" length="9.56" shape="957.22,969.84 964.35,976.20"/>
    </edge>
    <edge id=":42807263_8" function="internal">
        <lane id=":42807263_8_0" index="0" speed="13.89" length="7.17" shape="957.22,969.84 959.04,972.01 959.75,974.24 959.39,976.20"/>
    </edge>
    <edge id=":42807263_13" function="internal">
        <lane id=":42807263_13_0" index="0" speed="13.89" length="3.20" shape="959.39,976.20 959.32,976.55 957.77,978.93"/>
    </edge>
    <edge id=":42807263_9" function="internal">
        <lane id=":42807263_9_0" index="0" speed="13.89" length="5.08" shape="955.29,976.76 956.05,975.59 956.26,974.46 955.92,973.36 955.02,972.30"/>
    </edge>
    <edge id=":42807263_10" function="internal">
        <lane id=":42807263_10_0" index="0" speed="13.89" length="9.56" shape="955.29,976.76 961.59,969.57"/>
    </edge>
    <edge id=":42807263_11" function="internal">
        <lane id=":42807263_11_0" index="0" speed="13.89" length="10.37" shape="955.29,976.76 957.45,974.90 959.68,974.19 961.98,974.62 964.35,976.20"/>
    </edge>
    <edge id=":42807266_0" function="internal">
        <lane id=":42807266_0_0" index="0" speed="13.89" length="9.47" shape="1019.05,1029.46 1012.00,1023.14"/>
    </edge>
    <edge id=":42807266_1" function="internal">
        <lane id=":42807266_1_0" index="0" speed="13.89" length="7.10" shape="1019.05,1029.46 1017.26,1027.31 1016.58,1025.08 1016.95,1023.15"/>
    </edge>
    <edge id=":42807266_6" function="internal">
        <lane id=":42807266_6_0" index="0" speed="13.89" length="3.21" shape="1016.95,1023.15 1017.02,1022.78 1018.57,1020.41"/>
    </edge>
    <edge id=":42807266_2" function="internal">
        <lane id=":42807266_2_0" index="0" speed="13.89" length="5.04" shape="1021.05,1022.58 1020.29,1023.75 1020.07,1024.88 1020.39,1025.96 1021.26,1027.01"/>
    </edge>
    <edge id=":42807266_3" function="internal">
        <lane id=":42807266_3_0" index="0" speed="13.89" length="10.36" shape="1021.05,1022.58 1018.90,1024.43 1016.67,1025.14 1014.37,1024.71 1012.00,1023.14"/>
    </edge>
    <edge id=":42807266_4" function="internal">
        <lane id=":42807266_4_0" index="0" speed="13.89" length="5.01" shape="1014.20,1020.67 1015.34,1021.44 1016.45,1021.64 1017.53,1021.30 1018.57,1020.41"/>
    </edge>
    <edge id=":42807266_5" function="internal">
        <lane id=":42807266_5_0" index="0" speed="13.89" length="9.49" shape="1014.20,1020.67 1021.26,1027.01"/>
    </edge>
    <edge id=":42807270_0" function="internal">
        <lane id=":42807270_0_0" index="0" speed="13.89" length="5.04" shape="1048.48,1055.88 1047.31,1055.13 1046.19,1054.96 1045.12,1055.34 1044.11,1056.29"/>
    </edge>
    <edge id=":42807270_1" function="internal">
        <lane id=":42807270_1_0" index="0" speed="13.89" length="9.47" shape="1048.48,1055.88 1041.37,1049.63"/>
    </edge>
    <edge id=":42807270_2" function="internal">
        <lane id=":42807270_2_0" index="0" speed="13.89" length="9.38" shape="1043.58,1047.18 1050.63,1053.37"/>
    </edge>
    <edge id=":42807270_3" function="internal">
        <lane id=":42807270_3_0" index="0" speed="13.89" length="6.97" shape="1043.58,1047.18 1045.32,1049.29 1045.98,1051.51 1045.66,1053.40"/>
    </edge>
    <edge id=":42807270_6" function="internal">
        <lane id=":42807270_6_0" index="0" speed="13.89" length="3.31" shape="1045.66,1053.40 1045.58,1053.84 1044.11,1056.29"/>
    </edge>
    <edge id=":42807270_4" function="internal">
        <lane id=":42807270_4_0" index="0" speed="13.89" length="5.18" shape="1041.53,1054.23 1042.30,1052.97 1042.53,1051.79 1042.22,1050.67 1041.37,1049.63"/>
    </edge>
    <edge id=":42807270_5" function="internal">
        <lane id=":42807270_5_0" index="0" speed="13.89" length="10.50" shape="1041.53,1054.23 1043.64,1052.25 1045.86,1051.45 1048.19,1051.82 1050.63,1053.37"/>
    </edge>
    <edge id=":42807274_0" function="internal">
        <lane id=":42807274_0_0" index="0" speed="13.89" length="9.60" shape="1076.20,1079.52 1068.85,1073.35"/>
    </edge>
    <edge id=":42807274_1" function="internal">
        <lane id=":42807274_1_0" index="0" speed="13.89" length="7.22" shape="1076.20,1079.52 1074.25,1077.38 1073.48,1075.15 1073.83,1073.22"/>
    </edge>
    <edge id=":42807274_6" function="internal">
        <lane id=":42807274_6_0" index="0" speed="13.89" length="3.30" shape="1073.83,1073.22 1073.90,1072.82 1075.50,1070.41"/>
    </edge>
    <edge id=":42807274_2" function="internal">
        <lane id=":42807274_2_0" index="0" speed="13.89" length="5.05" shape="1077.96,1072.60 1077.19,1073.76 1076.99,1074.88 1077.36,1075.95 1078.30,1076.97"/>
    </edge>
    <edge id=":42807274_3" function="internal">
        <lane id=":42807274_3_0" index="0" speed="13.89" length="10.38" shape="1077.96,1072.60 1075.77,1074.47 1073.52,1075.21 1071.22,1074.84 1068.85,1073.35"/>
    </edge>
    <edge id=":42807274_4" function="internal">
        <lane id=":42807274_4_0" index="0" speed="13.89" length="5.13" shape="1071.00,1070.84 1072.15,1071.56 1073.29,1071.73 1074.40,1071.35 1075.50,1070.41"/>
    </edge>
    <edge id=":42807274_5" function="internal">
        <lane id=":42807274_5_0" index="0" speed="13.89" length="9.53" shape="1071.00,1070.84 1078.30,1076.97"/>
    </edge>
    <edge id=":42807275_0" function="internal">
        <lane id=":42807275_0_0" index="0" speed="18.06" length="10.06" shape="1169.84,1153.10 1166.96,1152.39 1164.40,1152.28 1162.15,1152.80 1160.23,1153.93"/>
    </edge>
    <edge id=":42807275_1" function="internal">
        <lane id=":42807275_1_0" index="0" speed="13.89" length="13.27" shape="1169.84,1153.10 1166.56,1151.92 1163.67,1150.64 1160.94,1149.07 1158.15,1147.00"/>
    </edge>
    <edge id=":42807275_2" function="internal">
        <lane id=":42807275_2_0" index="0" speed="18.06" length="13.90" shape="1169.84,1153.10 1166.07,1151.25 1164.51,1148.99 1165.16,1146.33 1168.02,1143.25"/>
    </edge>
    <edge id=":42807275_3" function="internal">
        <lane id=":42807275_3_0" index="0" speed="18.06" length="5.90" shape="1170.12,1145.79 1168.91,1147.10 1168.63,1148.23 1169.29,1149.19 1170.89,1149.98"/>
    </edge>
    <edge id=":42807275_4" function="internal">
        <lane id=":42807275_4_0" index="0" speed="22.22" length="12.80" shape="1170.12,1145.79 1167.50,1147.96 1165.18,1149.87 1162.87,1151.77 1160.23,1153.93"/>
    </edge>
    <edge id=":42807275_5" function="internal">
        <lane id=":42807275_5_0" index="0" speed="18.06" length="9.41" shape="1170.12,1145.79 1166.86,1147.95 1163.78,1148.86 1161.51,1148.62"/>
    </edge>
    <edge id=":42807275_12" function="internal">
        <lane id=":42807275_12_0" index="0" speed="18.06" length="3.77" shape="1161.51,1148.62 1160.88,1148.55 1158.15,1147.00"/>
    </edge>
    <edge id=":42807275_6" function="internal">
        <lane id=":42807275_6_0" index="0" speed="18.06" length="8.58" shape="1160.25,1144.45 1161.92,1145.35 1163.78,1145.45 1165.81,1144.75 1168.02,1143.25"/>
    </edge>
    <edge id=":42807275_7" function="internal">
        <lane id=":42807275_7_0" index="0" speed="13.89" length="12.08" shape="1160.25,1144.45 1162.88,1146.43 1165.24,1147.80 1167.78,1148.89 1170.89,1149.98"/>
    </edge>
    <edge id=":42807275_8" function="internal">
        <lane id=":42807275_8_0" index="0" speed="18.06" length="11.38" shape="1160.25,1144.45 1162.41,1146.82 1163.13,1149.19 1162.40,1151.56 1160.23,1153.93"/>
    </edge>
    <edge id=":42807275_9" function="internal">
        <lane id=":42807275_9_0" index="0" speed="18.06" length="5.25" shape="1158.15,1151.37 1159.15,1150.28 1159.48,1149.19 1159.15,1148.09 1158.15,1147.00"/>
    </edge>
    <edge id=":42807275_10" function="internal">
        <lane id=":42807275_10_0" index="0" speed="22.22" length="12.79" shape="1158.15,1151.37 1160.78,1149.22 1163.09,1147.32 1165.40,1145.42 1168.02,1143.25"/>
    </edge>
    <edge id=":42807275_11" function="internal">
        <lane id=":42807275_11_0" index="0" speed="18.06" length="8.57" shape="1158.15,1151.37 1160.79,1149.77 1163.80,1149.01 1166.17,1149.05"/>
    </edge>
    <edge id=":42807275_13" function="internal">
        <lane id=":42807275_13_0" index="0" speed="18.06" length="4.83" shape="1166.17,1149.05 1167.17,1149.08 1170.89,1149.98"/>
    </edge>
    <edge id=":42807278_0" function="internal">
        <lane id=":42807278_0_0" index="0" speed="13.89" length="5.09" shape="1305.56,1199.11 1304.22,1198.83 1303.10,1199.05 1302.20,1199.79 1301.53,1201.03"/>
    </edge>
    <edge id=":42807278_1" function="internal">
        <lane id=":42807278_1_0" index="0" speed="13.89" length="9.56" shape="1305.56,1199.11 1296.55,1195.92"/>
    </edge>
    <edge id=":42807278_2" function="internal">
        <lane id=":42807278_2_0" index="0" speed="13.89" length="10.33" shape="1305.56,1199.11 1303.07,1197.76 1301.61,1195.94 1301.18,1193.65 1301.78,1190.88"/>
    </edge>
    <edge id=":42807278_3" function="internal">
        <lane id=":42807278_3_0" index="0" speed="13.89" length="5.00" shape="1304.88,1192.03 1304.59,1193.37 1304.79,1194.48 1305.50,1195.36 1306.71,1196.01"/>
    </edge>
    <edge id=":42807278_4" function="internal">
        <lane id=":42807278_4_0" index="0" speed="13.89" length="9.60" shape="1304.88,1192.03 1301.53,1201.03"/>
    </edge>
    <edge id=":42807278_5" function="internal">
        <lane id=":42807278_5_0" index="0" speed="13.89" length="7.16" shape="1304.88,1192.03 1303.52,1194.51 1301.69,1195.98 1299.74,1196.38"/>
    </edge>
    <edge id=":42807278_12" function="internal">
        <lane id=":42807278_12_0" index="0" speed="13.89" length="3.25" shape="1299.74,1196.38 1299.36,1196.46 1296.55,1195.92"/>
    </edge>
    <edge id=":42807278_6" function="internal">
        <lane id=":42807278_6_0" index="0" speed="13.89" length="5.21" shape="1297.61,1192.80 1299.02,1193.07 1300.19,1192.84 1301.11,1192.11 1301.78,1190.88"/>
    </edge>
    <edge id=":42807278_7" function="internal">
        <lane id=":42807278_7_0" index="0" speed="13.89" length="9.65" shape="1297.61,1192.80 1306.71,1196.01"/>
    </edge>
    <edge id=":42807278_8" function="internal">
        <lane id=":42807278_8_0" index="0" speed="13.89" length="10.47" shape="1297.61,1192.80 1300.18,1194.10 1301.69,1195.90 1302.14,1198.21 1301.53,1201.03"/>
    </edge>
    <edge id=":42807278_9" function="internal">
        <lane id=":42807278_9_0" index="0" speed="13.89" length="5.03" shape="1298.44,1199.88 1298.73,1198.53 1298.51,1197.42 1297.79,1196.55 1296.55,1195.92"/>
    </edge>
    <edge id=":42807278_10" function="internal">
        <lane id=":42807278_10_0" index="0" speed="13.89" length="9.61" shape="1298.44,1199.88 1301.78,1190.88"/>
    </edge>
    <edge id=":42807278_11" function="internal">
        <lane id=":42807278_11_0" index="0" speed="13.89" length="7.22" shape="1298.44,1199.88 1299.80,1197.36 1301.63,1195.87 1303.59,1195.49"/>
    </edge>
    <edge id=":42807278_13" function="internal">
        <lane id=":42807278_13_0" index="0" speed="13.89" length="3.18" shape="1303.59,1195.49 1303.94,1195.42 1306.71,1196.01"/>
    </edge>
    <edge id=":42807281_0" function="internal">
        <lane id=":42807281_0_0" index="0" speed="13.89" length="5.00" shape="1490.54,1267.45 1489.20,1267.16 1488.09,1267.37 1487.21,1268.07 1486.56,1269.28"/>
    </edge>
    <edge id=":42807281_1" function="internal">
        <lane id=":42807281_1_0" index="0" speed="13.89" length="9.51" shape="1490.54,1267.45 1481.62,1264.15"/>
    </edge>
    <edge id=":42807281_2" function="internal">
        <lane id=":42807281_2_0" index="0" speed="13.89" length="7.15" shape="1490.54,1267.45 1488.05,1266.10 1486.59,1264.28 1486.22,1262.33"/>
    </edge>
    <edge id=":42807281_12" function="internal">
        <lane id=":42807281_12_0" index="0" speed="13.89" length="3.19" shape="1486.22,1262.33 1486.15,1261.98 1486.74,1259.21"/>
    </edge>
    <edge id=":42807281_3" function="internal">
        <lane id=":42807281_3_0" index="0" speed="13.89" length="5.02" shape="1489.84,1260.35 1489.56,1261.70 1489.77,1262.81 1490.48,1263.70 1491.69,1264.35"/>
    </edge>
    <edge id=":42807281_4" function="internal">
        <lane id=":42807281_4_0" index="0" speed="13.89" length="9.52" shape="1489.84,1260.35 1486.56,1269.28"/>
    </edge>
    <edge id=":42807281_5" function="internal">
        <lane id=":42807281_5_0" index="0" speed="13.89" length="10.34" shape="1489.84,1260.35 1488.50,1262.84 1486.68,1264.31 1484.39,1264.75 1481.62,1264.15"/>
    </edge>
    <edge id=":42807281_6" function="internal">
        <lane id=":42807281_6_0" index="0" speed="13.89" length="5.00" shape="1482.76,1261.05 1484.10,1261.34 1485.21,1261.13 1486.09,1260.42 1486.74,1259.21"/>
    </edge>
    <edge id=":42807281_7" function="internal">
        <lane id=":42807281_7_0" index="0" speed="13.89" length="9.51" shape="1482.76,1261.05 1491.69,1264.35"/>
    </edge>
    <edge id=":42807281_8" function="internal">
        <lane id=":42807281_8_0" index="0" speed="13.89" length="7.15" shape="1482.76,1261.05 1485.25,1262.40 1486.72,1264.22 1487.09,1266.17"/>
    </edge>
    <edge id=":42807281_13" function="internal">
        <lane id=":42807281_13_0" index="0" speed="13.89" length="3.18" shape="1487.09,1266.17 1487.15,1266.51 1486.56,1269.28"/>
    </edge>
    <edge id=":42807281_9" function="internal">
        <lane id=":42807281_9_0" index="0" speed="13.89" length="5.01" shape="1483.46,1268.14 1483.75,1266.80 1483.54,1265.69 1482.83,1264.80 1481.62,1264.15"/>
    </edge>
    <edge id=":42807281_10" function="internal">
        <lane id=":42807281_10_0" index="0" speed="13.89" length="9.51" shape="1483.46,1268.14 1486.74,1259.21"/>
    </edge>
    <edge id=":42807281_11" function="internal">
        <lane id=":42807281_11_0" index="0" speed="13.89" length="10.33" shape="1483.46,1268.14 1484.81,1265.65 1486.63,1264.19 1488.92,1263.75 1491.69,1264.35"/>
    </edge>
    <edge id=":42807286_0" function="internal">
        <lane id=":42807286_0_0" index="0" speed="13.89" length="5.04" shape="1726.71,1354.68 1725.36,1354.39 1724.24,1354.60 1723.35,1355.32 1722.69,1356.53"/>
    </edge>
    <edge id=":42807286_1" function="internal">
        <lane id=":42807286_1_0" index="0" speed="13.89" length="9.53" shape="1726.71,1354.68 1717.76,1351.39"/>
    </edge>
    <edge id=":42807286_2" function="internal">
        <lane id=":42807286_2_0" index="0" speed="13.89" length="10.35" shape="1726.71,1354.68 1724.21,1353.34 1722.74,1351.52 1722.30,1349.23 1722.90,1346.45"/>
    </edge>
    <edge id=":42807286_3" function="internal">
        <lane id=":42807286_3_0" index="0" speed="13.89" length="5.01" shape="1726.00,1347.60 1725.71,1348.94 1725.92,1350.05 1726.63,1350.93 1727.84,1351.57"/>
    </edge>
    <edge id=":42807286_4" function="internal">
        <lane id=":42807286_4_0" index="0" speed="13.89" length="9.52" shape="1726.00,1347.60 1722.69,1356.53"/>
    </edge>
    <edge id=":42807286_5" function="internal">
        <lane id=":42807286_5_0" index="0" speed="13.89" length="7.16" shape="1726.00,1347.60 1724.65,1350.09 1722.83,1351.55 1720.87,1351.92"/>
    </edge>
    <edge id=":42807286_12" function="internal">
        <lane id=":42807286_12_0" index="0" speed="13.89" length="3.18" shape="1720.87,1351.92 1720.53,1351.99 1717.76,1351.39"/>
    </edge>
    <edge id=":42807286_6" function="internal">
        <lane id=":42807286_6_0" index="0" speed="13.89" length="5.02" shape="1718.91,1348.30 1720.25,1348.59 1721.36,1348.38 1722.25,1347.66 1722.90,1346.45"/>
    </edge>
    <edge id=":42807286_7" function="internal">
        <lane id=":42807286_7_0" index="0" speed="13.89" length="9.51" shape="1718.91,1348.30 1727.84,1351.57"/>
    </edge>
    <edge id=":42807286_8" function="internal">
        <lane id=":42807286_8_0" index="0" speed="13.89" length="10.33" shape="1718.91,1348.30 1721.40,1349.65 1722.86,1351.47 1723.29,1353.76 1722.69,1356.53"/>
    </edge>