<?xml version="1.0" encoding="iso-8859-1"?>

<!-- generated on Wed Dec 21 18:02:16 2011 by SUMO netconvert Version 0.13.0
<?xml version="1.0" encoding="iso-8859-1"?>

<configuration xmlns:xsi="http://www.w3.org/2001/XMLSchema-instance" xsi:noNamespaceSchemaLocation="http://sumo.sf.net/xsd/netconvertConfiguration.xsd">

    <input>
        <osm-files value="manhattan_puny_closed_rotated.osm"/>
    </input>

    <output>
        <output-file value="temp.net.xml"/>
    </output>

    <projection>
        <proj.utm value="true"/>
    </projection>

    <processing>
        <no-turnarounds value="true"/>
        <junctions.join value="true"/>
    </processing>

</configuration>
-->

<net version="0.13" xmlns:xsi="http://www.w3.org/2001/XMLSchema-instance" xsi:noNamespaceSchemaLocation="http://sumo.sf.net/xsd/net_file.xsd">

    <location netOffset="-599985.78,-4513127.65" convBoundary="0.00,0.00,1520.21,1505.18" origBoundary="-73.815135,40.762937,-73.797317,40.776540" projParameter="+proj=utm +zone=18 +ellps=WGS84 +datum=WGS84 +units=m +no_defs"/>

    <edge id=":-155305_0" function="internal">
        <lane id=":-155305_0_0" index="0" speed="27.78" length="18.54" shape="1513.72,4.32 1518.74,5.10 1522.31,7.30 1524.42,10.91 1525.09,15.95"/>
    </edge>
    <edge id=":-155305_1" function="internal">
        <lane id=":-155305_1_0" index="0" speed="27.78" length="13.22" shape="1513.68,7.62 1517.26,8.18 1519.81,9.74 1521.32,12.32 1521.79,15.91"/>
    </edge>
    <edge id=":-155305_2" function="internal">
        <lane id=":-155305_2_0" index="0" speed="27.78" length="2.58" shape="1515.19,15.84 1515.10,15.14 1514.80,14.64 1514.31,14.33 1513.61,14.22"/>
    </edge>
    <edge id=":-155305_3" function="internal">
        <lane id=":-155305_3_0" index="0" speed="27.78" length="7.90" shape="1518.49,15.88 1518.21,13.73 1517.30,12.19 1515.78,11.25 1513.64,10.92"/>
    </edge>
    <edge id=":-162026_0" function="internal">
        <lane id=":-162026_0_0" index="0" speed="27.78" length="18.69" shape="6.61,1503.92 1.53,1503.18 -2.07,1500.99 -4.20,1497.35 -4.86,1492.26"/>
    </edge>
    <edge id=":-162026_1" function="internal">
        <lane id=":-162026_1_0" index="0" speed="27.78" length="13.33" shape="6.62,1500.62 3.00,1500.09 0.43,1498.53 -1.09,1495.93 -1.56,1492.30"/>
    </edge>
    <edge id=":-162026_2" function="internal">
        <lane id=":-162026_2_0" index="0" speed="27.78" length="2.60" shape="5.04,1492.39 5.13,1493.10 5.43,1493.61 5.93,1493.91 6.63,1494.02"/>
    </edge>
    <edge id=":-162026_3" function="internal">
        <lane id=":-162026_3_0" index="0" speed="27.78" length="7.96" shape="1.74,1492.35 2.02,1494.52 2.93,1496.07 4.46,1497.00 6.63,1497.32"/>
    </edge>
    <edge id=":-171922_0" function="internal">
        <lane id=":-171922_0_0" index="0" speed="27.78" length="9.50" shape="1511.06,1300.36 1510.96,1309.86"/>
    </edge>
    <edge id=":-171922_1" function="internal">
        <lane id=":-171922_1_0" index="0" speed="27.78" length="9.50" shape="1507.76,1300.32 1507.66,1309.82"/>
    </edge>
    <edge id=":-171922_2" function="internal">
        <lane id=":-171922_2_0" index="0" speed="20.83" length="6.48" shape="1507.76,1300.32 1507.13,1303.09 1505.28,1305.07 1504.41,1305.40"/>
    </edge>
    <edge id=":-171922_8" function="internal">
        <lane id=":-171922_8_0" index="0" speed="20.83" length="6.60" shape="1504.41,1305.40 1502.23,1306.24 1497.98,1306.63"/>
    </edge>
    <edge id=":-171922_3" function="internal">
        <lane id=":-171922_3_0" index="0" speed="20.83" length="5.03" shape="1497.99,1303.33 1499.37,1303.14 1500.35,1302.56 1500.95,1301.60 1501.16,1300.25"/>
    </edge>
    <edge id=":-171922_4" function="internal">
        <lane id=":-171922_4_0" index="0" speed="20.83" length="13.14" shape="1497.99,1303.33 1502.25,1303.74 1505.28,1304.97 1507.08,1306.99 1507.66,1309.82"/>
    </edge>
    <edge id=":-171922_5" function="internal">
        <lane id=":-171922_5_0" index="0" speed="20.83" length="5.01" shape="1501.06,1309.75 1500.88,1308.39 1500.31,1307.41 1499.34,1306.83 1497.98,1306.63"/>
    </edge>
    <edge id=":-171922_6" function="internal">
        <lane id=":-171922_6_0" index="0" speed="27.78" length="9.50" shape="1501.06,1309.75 1501.16,1300.25"/>
    </edge>
    <edge id=":-171922_7" function="internal">
        <lane id=":-171922_7_0" index="0" speed="27.78" length="9.50" shape="1504.36,1309.79 1504.46,1300.29"/>
    </edge>
    <edge id=":-176355_0" function="internal">
        <lane id=":-176355_0_0" index="0" speed="20.83" length="5.01" shape="1355.51,12.45 1354.15,12.63 1353.18,13.20 1352.59,14.17 1352.39,15.53"/>
    </edge>
    <edge id=":-176355_1" function="internal">
        <lane id=":-176355_1_0" index="0" speed="27.78" length="9.49" shape="1355.51,12.45 1346.02,12.33"/>
    </edge>
    <edge id=":-176355_2" function="internal">
        <lane id=":-176355_2_0" index="0" speed="27.78" length="9.48" shape="1355.55,9.15 1346.07,9.03"/>
    </edge>
    <edge id=":-176355_3" function="internal">
        <lane id=":-176355_3_0" index="0" speed="27.78" length="9.46" shape="1346.16,2.43 1355.62,2.55"/>
    </edge>
    <edge id=":-176355_4" function="internal">
        <lane id=":-176355_4_0" index="0" speed="27.78" length="9.47" shape="1346.12,5.73 1355.59,5.85"/>
    </edge>
    <edge id=":-176355_5" function="internal">
        <lane id=":-176355_5_0" index="0" speed="20.83" length="6.47" shape="1346.12,5.73 1348.88,6.38 1350.84,8.23 1351.18,9.10"/>
    </edge>
    <edge id=":-176355_8" function="internal">
        <lane id=":-176355_8_0" index="0" speed="20.83" length="6.60" shape="1351.18,9.10 1352.01,11.28 1352.39,15.53"/>
    </edge>
    <edge id=":-176355_6" function="internal">
        <lane id=":-176355_6_0" index="0" speed="20.83" length="5.03" shape="1349.09,15.51 1348.90,14.14 1348.33,13.15 1347.37,12.55 1346.02,12.33"/>
    </edge>
    <edge id=":-176355_7" function="internal">
        <lane id=":-176355_7_0" index="0" speed="20.83" length="13.13" shape="1349.09,15.51 1349.51,11.26 1350.74,8.23 1352.76,6.43 1355.59,5.85"/>
    </edge>
    <edge id=":-178241_0" function="internal">
        <lane id=":-178241_0_0" index="0" speed="20.83" length="5.00" shape="1438.08,13.37 1436.72,13.55 1435.74,14.12 1435.15,15.09 1434.95,16.44"/>
    </edge>
    <edge id=":-178241_1" function="internal">
        <lane id=":-178241_1_0" index="0" speed="27.78" length="9.50" shape="1438.08,13.37 1428.58,13.27"/>
    </edge>
    <edge id=":-178241_2" function="internal">
        <lane id=":-178241_2_0" index="0" speed="27.78" length="9.50" shape="1438.11,10.07 1428.61,9.97"/>
    </edge>
    <edge id=":-178241_3" function="internal">
        <lane id=":-178241_3_0" index="0" speed="27.78" length="9.50" shape="1428.69,3.37 1438.19,3.47"/>
    </edge>
    <edge id=":-178241_4" function="internal">
        <lane id=":-178241_4_0" index="0" speed="27.78" length="9.50" shape="1428.65,6.67 1438.15,6.77"/>
    </edge>
    <edge id=":-178241_5" function="internal">
        <lane id=":-178241_5_0" index="0" speed="20.83" length="6.50" shape="1428.65,6.67 1431.43,7.30 1433.41,9.15 1433.74,10.02"/>
    </edge>
    <edge id=":-178241_8" function="internal">
        <lane id=":-178241_8_0" index="0" speed="20.83" length="6.59" shape="1433.74,10.02 1434.58,12.19 1434.95,16.44"/>
    </edge>
    <edge id=":-178241_6" function="internal">
        <lane id=":-178241_6_0" index="0" speed="20.83" length="5.02" shape="1431.65,16.42 1431.46,15.05 1430.89,14.07 1429.93,13.48 1428.58,13.27"/>
    </edge>
    <edge id=":-178241_7" function="internal">
        <lane id=":-178241_7_0" index="0" speed="20.83" length="13.12" shape="1431.65,16.42 1432.08,12.17 1433.31,9.15 1435.33,7.35 1438.15,6.77"/>
    </edge>
    <edge id=":-179308_0" function="internal">
        <lane id=":-179308_0_0" index="0" speed="13.89" length="5.06" shape="1429.19,1227.13 1427.81,1227.33 1426.82,1227.91 1426.23,1228.89 1426.03,1230.26"/>
    </edge>
    <edge id=":-179308_1" function="internal">
        <lane id=":-179308_1_0" index="0" speed="13.89" length="9.56" shape="1429.19,1227.13 1419.63,1227.15"/>
    </edge>
    <edge id=":-179308_2" function="internal">
        <lane id=":-179308_2_0" index="0" speed="13.89" length="7.14" shape="1429.19,1227.13 1426.36,1226.73 1424.36,1225.52 1423.37,1223.84"/>
    </edge>
    <edge id=":-179308_12" function="internal">
        <lane id=":-179308_12_0" index="0" speed="13.89" length="3.25" shape="1423.37,1223.84 1423.17,1223.50 1422.81,1220.67"/>
    </edge>
    <edge id=":-179308_3" function="internal">
        <lane id=":-179308_3_0" index="0" speed="13.89" length="5.02" shape="1426.11,1220.71 1426.28,1222.08 1426.85,1223.05 1427.82,1223.64 1429.19,1223.83"/>
    </edge>
    <edge id=":-179308_4" function="internal">
        <lane id=":-179308_4_0" index="0" speed="13.89" length="9.54" shape="1426.11,1220.71 1426.03,1230.26"/>
    </edge>
    <edge id=":-179308_5" function="internal">
        <lane id=":-179308_5_0" index="0" speed="13.89" length="10.38" shape="1426.11,1220.71 1425.67,1223.52 1424.44,1225.53 1422.43,1226.74 1419.63,1227.15"/>
    </edge>
    <edge id=":-179308_6" function="internal">
        <lane id=":-179308_6_0" index="0" speed="13.89" length="5.12" shape="1419.62,1223.85 1421.00,1223.65 1421.99,1223.05 1422.59,1222.06 1422.81,1220.67"/>
    </edge>
    <edge id=":-179308_7" function="internal">
        <lane id=":-179308_7_0" index="0" speed="13.89" length="9.57" shape="1419.62,1223.85 1429.19,1223.83"/>
    </edge>
    <edge id=":-179308_8" function="internal">
        <lane id=":-179308_8_0" index="0" speed="13.89" length="7.15" shape="1419.62,1223.85 1422.43,1224.24 1424.43,1225.44 1425.45,1227.14"/>
    </edge>
    <edge id=":-179308_13" function="internal">
        <lane id=":-179308_13_0" index="0" speed="13.89" length="3.19" shape="1425.45,1227.14 1425.63,1227.45 1426.03,1230.26"/>
    </edge>
    <edge id=":-179308_9" function="internal">
        <lane id=":-179308_9_0" index="0" speed="13.89" length="5.01" shape="1422.73,1230.25 1422.54,1228.89 1421.96,1227.92 1420.99,1227.34 1419.63,1227.15"/>
    </edge>
    <edge id=":-179308_10" function="internal">
        <lane id=":-179308_10_0" index="0" speed="13.89" length="9.58" shape="1422.73,1230.25 1422.81,1220.67"/>
    </edge>
    <edge id=":-179308_11" function="internal">
        <lane id=":-179308_11_0" index="0" speed="13.89" length="10.37" shape="1422.73,1230.25 1423.14,1227.44 1424.35,1225.44 1426.37,1224.24 1429.19,1223.83"/>
    </edge>
    <edge id=":-179615_0" function="internal">
        <lane id=":-179615_0_0" index="0" speed="27.78" length="9.50" shape="63.19,1504.07 53.69,1504.04"/>
    </edge>
    <edge id=":-179615_1" function="internal">
        <lane id=":-179615_1_0" index="0" speed="27.78" length="9.50" shape="63.20,1500.77 53.70,1500.74"/>
    </edge>
    <edge id=":-179615_2" function="internal">
        <lane id=":-179615_2_0" index="0" speed="20.83" length="6.51" shape="63.20,1500.77 60.40,1500.15 58.41,1498.33 58.06,1497.45"/>
    </edge>
    <edge id=":-179615_8" function="internal">
        <lane id=":-179615_8_0" index="0" speed="20.83" length="6.58" shape="58.06,1497.45 57.21,1495.30 56.83,1491.05"/>
    </edge>
    <edge id=":-179615_3" function="internal">
        <lane id=":-179615_3_0" index="0" speed="20.83" length="5.00" shape="60.13,1491.06 60.32,1492.42 60.89,1493.39 61.86,1493.97 63.22,1494.17"/>
    </edge>
    <edge id=":-179615_4" function="internal">
        <lane id=":-179615_4_0" index="0" speed="20.83" length="13.09" shape="60.13,1491.06 59.71,1495.30 58.51,1498.33 56.50,1500.14 53.70,1500.74"/>
    </edge>
    <edge id=":-179615_5" function="internal">
        <lane id=":-179615_5_0" index="0" speed="20.83" length="5.00" shape="53.72,1494.14 55.07,1493.95 56.04,1493.37 56.63,1492.41 56.83,1491.05"/>
    </edge>
    <edge id=":-179615_6" function="internal">
        <lane id=":-179615_6_0" index="0" speed="27.78" length="9.50" shape="53.72,1494.14 63.22,1494.17"/>
    </edge>
    <edge id=":-179615_7" function="internal">
        <lane id=":-179615_7_0" index="0" speed="27.78" length="9.50" shape="53.71,1497.44 63.21,1497.47"/>
    </edge>
    <edge id=":-179624_0" function="internal">
        <lane id=":-179624_0_0" index="0" speed="13.89" length="5.08" shape="63.56,1381.68 62.18,1381.89 61.19,1382.49 60.59,1383.47 60.39,1384.83"/>
    </edge>
    <edge id=":-179624_1" function="internal">
        <lane id=":-179624_1_0" index="0" speed="13.89" length="9.59" shape="63.56,1381.68 53.97,1381.71"/>
    </edge>
    <edge id=":-179624_2" function="internal">
        <lane id=":-179624_2_0" index="0" speed="13.89" length="10.37" shape="63.56,1381.68 60.74,1381.31 58.72,1380.12 57.51,1378.12 57.10,1375.30"/>
    </edge>
    <edge id=":-179624_3" function="internal">
        <lane id=":-179624_3_0" index="0" speed="13.89" length="5.01" shape="60.40,1375.30 60.60,1376.66 61.18,1377.63 62.16,1378.20 63.52,1378.38"/>
    </edge>
    <edge id=":-179624_4" function="internal">
        <lane id=":-179624_4_0" index="0" speed="13.89" length="9.53" shape="60.40,1375.30 60.39,1384.83"/>
    </edge>
    <edge id=":-179624_5" function="internal">
        <lane id=":-179624_5_0" index="0" speed="13.89" length="7.17" shape="60.40,1375.30 60.00,1378.12 58.80,1380.12 57.10,1381.14"/>
    </edge>
    <edge id=":-179624_12" function="internal">
        <lane id=":-179624_12_0" index="0" speed="13.89" length="3.20" shape="57.10,1381.14 56.79,1381.32 53.97,1381.71"/>
    </edge>
    <edge id=":-179624_6" function="internal">
        <lane id=":-179624_6_0" index="0" speed="13.89" length="5.02" shape="53.99,1378.41 55.35,1378.22 56.32,1377.64 56.91,1376.67 57.10,1375.30"/>
    </edge>
    <edge id=":-179624_7" function="internal">
        <lane id=":-179624_7_0" index="0" speed="13.89" length="9.53" shape="53.99,1378.41 63.52,1378.38"/>
    </edge>
    <edge id=":-179624_8" function="internal">
        <lane id=":-179624_8_0" index="0" speed="13.89" length="10.33" shape="53.99,1378.41 56.80,1378.82 58.80,1380.03 60.00,1382.03 60.39,1384.83"/>
    </edge>
    <edge id=":-179624_9" function="internal">
        <lane id=":-179624_9_0" index="0" speed="13.89" length="5.02" shape="57.09,1384.82 56.90,1383.47 56.32,1382.50 55.34,1381.91 53.97,1381.71"/>
    </edge>
    <edge id=":-179624_10" function="internal">
        <lane id=":-179624_10_0" index="0" speed="13.89" length="9.52" shape="57.09,1384.82 57.10,1375.30"/>
    </edge>
    <edge id=":-179624_11" function="internal">
        <lane id=":-179624_11_0" index="0" speed="13.89" length="7.13" shape="57.09,1384.82 57.50,1382.03 58.71,1380.03 60.40,1379.00"/>
    </edge>
    <edge id=":-179624_13" function="internal">
        <lane id=":-179624_13_0" index="0" speed="13.89" length="3.21" shape="60.40,1379.00 60.71,1378.81 63.52,1378.38"/>
    </edge>
    <edge id=":-179633_0" function="internal">
        <lane id=":-179633_0_0" index="0" speed="13.89" length="5.07" shape="56.99,1303.87 56.80,1302.49 56.21,1301.50 55.24,1300.90 53.87,1300.69"/>
    </edge>
    <edge id=":-179633_1" function="internal">
        <lane id=":-179633_1_0" index="0" speed="13.89" length="9.56" shape="56.99,1303.87 57.02,1294.32"/>
    </edge>
    <edge id=":-179633_2" function="internal">
        <lane id=":-179633_2_0" index="0" speed="13.89" length="10.39" shape="56.99,1303.87 57.39,1301.05 58.60,1299.04 60.62,1297.86 63.45,1297.49"/>
    </edge>
    <edge id=":-179633_3" function="internal">
        <lane id=":-179633_3_0" index="0" speed="13.89" length="5.02" shape="63.41,1300.79 62.04,1300.96 61.07,1301.54 60.49,1302.51 60.29,1303.87"/>
    </edge>
    <edge id=":-179633_4" function="internal">
        <lane id=":-179633_4_0" index="0" speed="13.89" length="9.54" shape="63.41,1300.79 53.87,1300.69"/>
    </edge>
    <edge id=":-179633_5" function="internal">
        <lane id=":-179633_5_0" index="0" speed="13.89" length="7.17" shape="63.41,1300.79 60.60,1300.35 58.59,1299.13 57.59,1297.43"/>
    </edge>
    <edge id=":-179633_12" function="internal">
        <lane id=":-179633_12_0" index="0" speed="13.89" length="3.19" shape="57.59,1297.43 57.40,1297.12 57.02,1294.32"/>
    </edge>
    <edge id=":-179633_6" function="internal">
        <lane id=":-179633_6_0" index="0" speed="13.89" length="5.06" shape="60.32,1294.34 60.51,1295.70 61.09,1296.68 62.07,1297.27 63.45,1297.49"/>
    </edge>
    <edge id=":-179633_7" function="internal">
        <lane id=":-179633_7_0" index="0" speed="13.89" length="9.53" shape="60.32,1294.34 60.29,1303.87"/>
    </edge>
    <edge id=":-179633_8" function="internal">
        <lane id=":-179633_8_0" index="0" speed="13.89" length="10.32" shape="60.32,1294.34 59.90,1297.14 58.68,1299.13 56.68,1300.31 53.87,1300.69"/>
    </edge>
    <edge id=":-179633_9" function="internal">
        <lane id=":-179633_9_0" index="0" speed="13.89" length="5.00" shape="53.90,1297.39 55.25,1297.21 56.23,1296.63 56.81,1295.67 57.02,1294.32"/>
    </edge>
    <edge id=":-179633_10" function="internal">
        <lane id=":-179633_10_0" index="0" speed="13.89" length="9.55" shape="53.90,1297.39 63.45,1297.49"/>
    </edge>
    <edge id=":-179633_11" function="internal">
        <lane id=":-179633_11_0" index="0" speed="13.89" length="7.16" shape="53.90,1297.39 56.69,1297.82 58.69,1299.04 59.71,1300.75"/>
    </edge>
    <edge id=":-179633_13" function="internal">
        <lane id=":-179633_13_0" index="0" speed="13.89" length="3.20" shape="59.71,1300.75 59.89,1301.05 60.29,1303.87"/>
    </edge>
    <edge id=":-179641_0" function="internal">
        <lane id=":-179641_0_0" index="0" speed="13.89" length="5.01" shape="63.92,1222.11 62.55,1222.28 61.58,1222.85 60.99,1223.81 60.78,1225.17"/>
    </edge>
    <edge id=":-179641_1" function="internal">
        <lane id=":-179641_1_0" index="0" speed="13.89" length="9.58" shape="63.92,1222.11 54.34,1221.95"/>
    </edge>
    <edge id=":-179641_2" function="internal">
        <lane id=":-179641_2_0" index="0" speed="13.89" length="7.18" shape="63.92,1222.11 61.12,1221.66 59.12,1220.43 58.11,1218.71"/>
    </edge>
    <edge id=":-179641_12" function="internal">
        <lane id=":-179641_12_0" index="0" speed="13.89" length="3.21" shape="58.11,1218.71 57.92,1218.40 57.53,1215.58"/>
    </edge>
    <edge id=":-179641_3" function="internal">
        <lane id=":-179641_3_0" index="0" speed="13.89" length="5.11" shape="60.83,1215.59 61.02,1216.98 61.61,1217.98 62.59,1218.59 63.97,1218.81"/>
    </edge>
    <edge id=":-179641_4" function="internal">
        <lane id=":-179641_4_0" index="0" speed="13.89" length="9.58" shape="60.83,1215.59 60.78,1225.17"/>
    </edge>
    <edge id=":-179641_5" function="internal">
        <lane id=":-179641_5_0" index="0" speed="13.89" length="10.40" shape="60.83,1215.59 60.42,1218.42 59.20,1220.42 57.17,1221.60 54.34,1221.95"/>
    </edge>
    <edge id=":-179641_6" function="internal">
        <lane id=":-179641_6_0" index="0" speed="13.89" length="5.02" shape="54.40,1218.65 55.76,1218.48 56.74,1217.91 57.33,1216.95 57.53,1215.58"/>
    </edge>
    <edge id=":-179641_7" function="internal">
        <lane id=":-179641_7_0" index="0" speed="13.89" length="9.57" shape="54.40,1218.65 63.97,1218.81"/>
    </edge>
    <edge id=":-179641_8" function="internal">
        <lane id=":-179641_8_0" index="0" speed="13.89" length="7.18" shape="54.40,1218.65 57.21,1219.10 59.21,1220.34 60.22,1222.05"/>
    </edge>
    <edge id=":-179641_13" function="internal">
        <lane id=":-179641_13_0" index="0" speed="13.89" length="3.20" shape="60.22,1222.05 60.40,1222.36 60.78,1225.17"/>
    </edge>
    <edge id=":-179641_9" function="internal">
        <lane id=":-179641_9_0" index="0" speed="13.89" length="5.10" shape="57.48,1225.15 57.30,1223.77 56.71,1222.78 55.72,1222.17 54.34,1221.95"/>
    </edge>
    <edge id=":-179641_10" function="internal">
        <lane id=":-179641_10_0" index="0" speed="13.89" length="9.57" shape="57.48,1225.15 57.53,1215.58"/>
    </edge>
    <edge id=":-179641_11" function="internal">
        <lane id=":-179641_11_0" index="0" speed="13.89" length="10.36" shape="57.48,1225.15 57.91,1222.34 59.13,1220.35 61.15,1219.17 63.97,1218.81"/>
    </edge>
    <edge id=":-179651_0" function="internal">
        <lane id=":-179651_0_0" index="0" speed="13.89" length="5.01" shape="64.13,1142.71 62.77,1142.89 61.79,1143.46 61.21,1144.43 61.01,1145.79"/>
    </edge>
    <edge id=":-179651_1" function="internal">
        <lane id=":-179651_1_0" index="0" speed="13.89" length="9.58" shape="64.13,1142.71 54.55,1142.58"/>
    </edge>
    <edge id=":-179651_2" function="internal">
        <lane id=":-179651_2_0" index="0" speed="13.89" length="10.38" shape="64.13,1142.71 61.33,1142.28 59.32,1141.05 58.13,1139.02 57.73,1136.21"/>
    </edge>
    <edge id=":-179651_3" function="internal">
        <lane id=":-179651_3_0" index="0" speed="13.89" length="5.09" shape="61.03,1136.22 61.23,1137.60 61.81,1138.59 62.79,1139.20 64.17,1139.41"/>
    </edge>
    <edge id=":-179651_4" function="internal">
        <lane id=":-179651_4_0" index="0" speed="13.89" length="9.57" shape="61.03,1136.22 61.01,1145.79"/>
    </edge>
    <edge id=":-179651_5" function="internal">
        <lane id=":-179651_5_0" index="0" speed="13.89" length="7.15" shape="61.03,1136.22 60.62,1139.04 59.40,1141.04 57.72,1142.02"/>
    </edge>
    <edge id=":-179651_12" function="internal">
        <lane id=":-179651_12_0" index="0" speed="13.89" length="3.24" shape="57.72,1142.02 57.38,1142.22 54.55,1142.58"/>
    </edge>
    <edge id=":-179651_6" function="internal">
        <lane id=":-179651_6_0" index="0" speed="13.89" length="5.02" shape="54.60,1139.28 55.97,1139.11 56.95,1138.54 57.53,1137.57 57.73,1136.21"/>
    </edge>
    <edge id=":-179651_7" function="internal">
        <lane id=":-179651_7_0" index="0" speed="13.89" length="9.57" shape="54.60,1139.28 64.17,1139.41"/>
    </edge>
    <edge id=":-179651_8" function="internal">
        <lane id=":-179651_8_0" index="0" speed="13.89" length="10.38" shape="54.60,1139.28 57.41,1139.72 59.42,1140.96 60.61,1142.98 61.01,1145.79"/>
    </edge>
    <edge id=":-179651_9" function="internal">
        <lane id=":-179651_9_0" index="0" speed="13.89" length="5.11" shape="57.71,1145.78 57.51,1144.40 56.92,1143.40 55.94,1142.80 54.55,1142.58"/>
    </edge>
    <edge id=":-179651_10" function="internal">
        <lane id=":-179651_10_0" index="0" speed="13.89" length="9.57" shape="57.71,1145.78 57.73,1136.21"/>
    </edge>
    <edge id=":-179651_11" function="internal">
        <lane id=":-179651_11_0" index="0" speed="13.89" length="7.15" shape="57.71,1145.78 58.12,1142.96 59.33,1140.97 61.02,1139.97"/>
    </edge>
    <edge id=":-179651_13" function="internal">
        <lane id=":-179651_13_0" index="0" speed="13.89" length="3.22" shape="61.02,1139.97 61.35,1139.78 64.17,1139.41"/>
    </edge>
    <edge id=":-179663_0" function="internal">
        <lane id=":-179663_0_0" index="0" speed="13.89" length="5.01" shape="64.33,1063.25 62.97,1063.43 62.00,1064.01 61.41,1064.97 61.21,1066.33"/>
    </edge>
    <edge id=":-179663_1" function="internal">
        <lane id=":-179663_1_0" index="0" speed="13.89" length="9.54" shape="64.33,1063.25 54.79,1063.16"/>
    </edge>
    <edge id=":-179663_2" function="internal">
        <lane id=":-179663_2_0" index="0" speed="13.89" length="7.17" shape="64.33,1063.25 61.53,1062.82 59.53,1061.60 58.52,1059.89"/>
    </edge>
    <edge id=":-179663_12" function="internal">
        <lane id=":-179663_12_0" index="0" speed="13.89" length="3.19" shape="58.52,1059.89 58.33,1059.59 57.94,1056.78"/>
    </edge>
    <edge id=":-179663_3" function="internal">
        <lane id=":-179663_3_0" index="0" speed="13.89" length="5.06" shape="61.24,1056.79 61.43,1058.16 62.02,1059.15 63.00,1059.74 64.37,1059.95"/>
    </edge>
    <edge id=":-179663_4" function="internal">
        <lane id=":-179663_4_0" index="0" speed="13.89" length="9.54" shape="61.24,1056.79 61.21,1066.33"/>
    </edge>
    <edge id=":-179663_5" function="internal">
        <lane id=":-179663_5_0" index="0" speed="13.89" length="10.35" shape="61.24,1056.79 60.83,1059.60 59.62,1061.60 57.60,1062.78 54.79,1063.16"/>
    </edge>
    <edge id=":-179663_6" function="internal">
        <lane id=":-179663_6_0" index="0" speed="13.89" length="5.01" shape="54.82,1059.86 56.18,1059.68 57.16,1059.10 57.74,1058.14 57.94,1056.78"/>
    </edge>
    <edge id=":-179663_7" function="internal">
        <lane id=":-179663_7_0" index="0" speed="13.89" length="9.54" shape="54.82,1059.86 64.37,1059.95"/>
    </edge>
    <edge id=":-179663_8" function="internal">
        <lane id=":-179663_8_0" index="0" speed="13.89" length="7.16" shape="54.82,1059.86 57.62,1060.29 59.62,1061.51 60.64,1063.22"/>
    </edge>
    <edge id=":-179663_13" function="internal">
        <lane id=":-179663_13_0" index="0" speed="13.89" length="3.20" shape="60.64,1063.22 60.82,1063.52 61.21,1066.33"/>
    </edge>
    <edge id=":-179663_9" function="internal">
        <lane id=":-179663_9_0" index="0" speed="13.89" length="5.06" shape="57.91,1066.32 57.72,1064.95 57.14,1063.96 56.16,1063.37 54.79,1063.16"/>
    </edge>
    <edge id=":-179663_10" function="internal">
        <lane id=":-179663_10_0" index="0" speed="13.89" length="9.55" shape="57.91,1066.32 57.94,1056.78"/>
    </edge>
    <edge id=":-179663_11" function="internal">
        <lane id=":-179663_11_0" index="0" speed="13.89" length="10.36" shape="57.91,1066.32 58.32,1063.51 59.53,1061.51 61.55,1060.33 64.37,1059.95"/>
    </edge>
    <edge id=":-179666_0" function="internal">
        <lane id=":-179666_0_0" index="0" speed="13.89" length="5.00" shape="64.65,984.10 63.30,984.29 62.32,984.87 61.74,985.84 61.54,987.19"/>
    </edge>
    <edge id=":-179666_1" function="internal">
        <lane id=":-179666_1_0" index="0" speed="13.89" length="9.53" shape="64.65,984.10 55.12,984.05"/>
    </edge>
    <edge id=":-179666_2" function="internal">
        <lane id=":-179666_2_0" index="0" speed="13.89" length="10.34" shape="64.65,984.10 61.86,983.69 59.86,982.48 58.67,980.48 58.27,977.66"/>
    </edge>
    <edge id=":-179666_3" function="internal">
        <lane id=":-179666_3_0" index="0" speed="13.89" length="5.02" shape="61.57,977.67 61.76,979.04 62.34,980.02 63.31,980.61 64.66,980.80"/>
    </edge>
    <edge id=":-179666_4" function="internal">
        <lane id=":-179666_4_0" index="0" speed="13.89" length="9.52" shape="61.57,977.67 61.54,987.19"/>
    </edge>
    <edge id=":-179666_5" function="internal">
        <lane id=":-179666_5_0" index="0" speed="13.89" length="7.15" shape="61.57,977.67 61.16,980.48 59.95,982.48 58.25,983.49"/>
    </edge>
    <edge id=":-179666_12" function="internal">
        <lane id=":-179666_12_0" index="0" speed="13.89" length="3.20" shape="58.25,983.49 57.94,983.67 55.12,984.05"/>
    </edge>
    <edge id=":-179666_6" function="internal">
        <lane id=":-179666_6_0" index="0" speed="13.89" length="5.01" shape="55.15,980.75 56.52,980.56 57.49,979.99 58.07,979.02 58.27,977.66"/>
    </edge>
    <edge id=":-179666_7" function="internal">
        <lane id=":-179666_7_0" index="0" speed="13.89" length="9.51" shape="55.15,980.75 64.66,980.80"/>
    </edge>
    <edge id=":-179666_8" function="internal">
        <lane id=":-179666_8_0" index="0" speed="13.89" length="10.34" shape="55.15,980.75 57.96,981.17 59.96,982.39 61.15,984.39 61.54,987.19"/>
    </edge>
    <edge id=":-179666_9" function="internal">
        <lane id=":-179666_9_0" index="0" speed="13.89" length="5.03" shape="58.24,987.18 58.05,985.82 57.47,984.84 56.49,984.25 55.12,984.05"/>
    </edge>
    <edge id=":-179666_10" function="internal">
        <lane id=":-179666_10_0" index="0" speed="13.89" length="9.51" shape="58.24,987.18 58.27,977.66"/>
    </edge>
    <edge id=":-179666_11" function="internal">
        <lane id=":-179666_11_0" index="0" speed="13.89" length="7.14" shape="58.24,987.18 58.65,984.38 59.86,982.39 61.56,981.38"/>
    </edge>
    <edge id=":-179666_13" function="internal">
        <lane id=":-179666_13_0" index="0" speed="13.89" length="3.18" shape="61.56,981.38 61.86,981.20 64.66,980.80"/>
    </edge>
    <edge id=":-182393_0" function="internal">
        <lane id=":-182393_0_0" index="0" speed="20.83" length="5.91" shape="180.85,4.97 179.57,5.23 178.54,5.98 177.76,7.24 177.23,9.01"/>
    </edge>
    <edge id=":-182393_1" function="internal">
        <lane id=":-182393_1_0" index="0" speed="27.78" length="9.63" shape="180.85,4.97 171.22,4.98"/>
    </edge>
    <edge id=":-182393_2" function="internal">
        <lane id=":-182393_2_0" index="0" speed="27.78" length="9.63" shape="180.85,1.67 171.22,1.68"/>
    </edge>
    <edge id=":-182393_3" function="internal">
        <lane id=":-182393_3_0" index="0" speed="27.78" length="9.63" shape="171.22,-4.92 180.85,-4.93"/>
    </edge>
    <edge id=":-182393_4" function="internal">
        <lane id=":-182393_4_0" index="0" speed="27.78" length="9.63" shape="171.22,-1.62 180.85,-1.63"/>
    </edge>
    <edge id=":-182393_5" function="internal">
        <lane id=":-182393_5_0" index="0" speed="20.83" length="7.09" shape="171.22,-1.62 174.65,-0.96 176.79,1.03 176.96,1.67"/>
    </edge>
    <edge id=":-182393_8" function="internal">
        <lane id=":-182393_8_0" index="0" speed="20.83" length="7.44" shape="176.96,1.67 177.65,4.36 177.23,9.01"/>
    </edge>
    <edge id=":-182393_6" function="internal">
        <lane id=":-182393_6_0" index="0" speed="20.83" length="5.26" shape="173.99,8.36 174.07,6.88 173.64,5.82 172.69,5.19 171.22,4.98"/>
    </edge>
    <edge id=":-182393_7" function="internal">
        <lane id=":-182393_7_0" index="0" speed="20.83" length="13.00" shape="173.99,8.36 175.17,3.99 176.71,0.87 178.60,-1.00 180.85,-1.63"/>
    </edge>
    <edge id=":-182409_0" function="internal">